
**** 12/18/23 20:11:37 ******* PSpice Lite (March 2016) ******* ID# 10813 ****

 ** Profile: "SCHEMATIC1-Buck"  [ F:\Cadence Example\buck-PSpiceFiles\SCHEMATIC1\Buck.sim ] 


 ****     CIRCUIT DESCRIPTION


******************************************************************************




** Creating circuit file "Buck.cir" 
** WARNING: THIS AUTOMATICALLY GENERATED FILE MAY BE OVERWRITTEN BY SUBSEQUENT SIMULATIONS

*Libraries: 
* Profile Libraries :
* Local Libraries :
.LIB "../../../buck-pspicefiles/buck.lib" 
* From [PSPICE NETLIST] section of C:\Users\hp\AppData\Roaming\SPB_Data\cdssetup\OrCAD_PSpice\17.2.0\PSpice.ini file:
.lib "nomd.lib" 

*Analysis directives: 
.TRAN  0 10m 0 
.OPTIONS ADVCONV
.PROBE64 V(alias(*)) I(alias(*)) W(alias(*)) D(alias(*)) NOISE(alias(*)) 
.INC "..\SCHEMATIC1.net" 



**** INCLUDING SCHEMATIC1.net ****
* source BUCK
V_V1         N00230 0 25
M_M1         N00230 N01632 N00237 N00237 IRF540
R_R1         N00197 N00257  0.017 TC=0,0 
R_R2         N01356 N00253  0.01 TC=0,0 
R_R3         0 N00253  6.8 TC=0,0 
C_C1         0 N01356  210u  TC=0,0 
L_L1         N00237 N00197  25u  
D_D2         0 N00237 31DQ10 
E_E1         N01777 0 POLY(1) N00257 N00253 0.0 1
R_R4         N00257 N00253  0.05 TC=0,0 
E_SUM1         N02620 0 VALUE {V(N01777)+V(N01931)}
I_I1         N01931 0 DC 0Adc AC 0Aac
+PULSE 0 -278u 100n 4.95u 2n 2n 5u
R_R5         0 N01931  1k TC=0,0 
R_Rcomp         N02269 N02295  100k TC=0,0 
R_Rcomp1         N02269 N02283  10e6 TC=0,0 
R_R8         N02251 N02269  1k TC=0,0 
R_R9         0 N02251  3.25k TC=0,0 
R_R10         N02251 N00253  9.76k TC=0,0 
C_Chf         N02269 N02283  30p  TC=0,0 
C_Ccomp         N02295 N02283  2n  TC=0,0 
E_E3         N02675 0 VALUE { if(V(N02620) >V( N02283),3.5,0) }
X_U3         N03841 N03864 N03889 $G_DPWR $G_DGND NOR2
X_U4         N03889 N02675 N03864 $G_DPWR $G_DGND NOR2
X_U5         N03841 N03889 N04324 $G_DPWR $G_DGND NOR2
E_E4         N01632 0 VALUE { if(V(N04324)>1.5,30,0) }
V_V2         N03841 0  
+PULSE 0.1 3.5 0 5n 5n 100n 5u
R_R11         0 N03864  1Meg TC=0,0 
C_C5         0 N04324  1p  TC=0,0 
C_C6         0 N04324  1p  TC=0,0 
C_C7         0 N01632  1p  TC=0,0 
X_U6A         N06430 N02269 V+ N06056 N02283 LM324
V_V3         M_UN0001 0 12v
V_V4         0 N06056 12
V_V5         N06430 0  
+PULSE 0 2.5 0 4m 2m 1 2

**** RESUMING Buck.cir ****
.END


**** Generated AtoD and DtoA Interfaces ****

*
* Analog/Digital interface for node N02675
*
* Moving X_U4.U1:IN2 from analog node N02675 to new digital node N02675$AtoD
X$N02675_AtoD1
+ N02675
+ N02675$AtoD
+ $G_DPWR
+ $G_DGND
+ AtoDdefault
+       PARAMS: CAPACITANCE=   0     
*
* Analog/Digital interface for node N04324
*
* Moving X_U5.U1:OUT1 from analog node N04324 to new digital node N04324$DtoA
X$N04324_DtoA1
+ N04324$DtoA
+ N04324
+ $G_DPWR
+ $G_DGND
+ DtoAdefault
+       PARAMS: DRVH=  50     DRVL=  50     CAPACITANCE=   0     
*
* Analog/Digital interface for node N03841
*
* Moving X_U5.U1:IN1 from analog node N03841 to new digital node N03841$AtoD
X$N03841_AtoD1
+ N03841
+ N03841$AtoD
+ $G_DPWR
+ $G_DGND
+ AtoDdefault
+       PARAMS: CAPACITANCE=   0     
* Moving X_U3.U1:IN1 from analog node N03841 to new digital node N03841$AtoD2
X$N03841_AtoD2
+ N03841
+ N03841$AtoD2
+ $G_DPWR
+ $G_DGND
+ AtoDdefault
+       PARAMS: CAPACITANCE=   0     
*
* Analog/Digital interface for node N03864
*
* Moving X_U3.U1:IN2 from analog node N03864 to new digital node N03864$AtoD
X$N03864_AtoD1
+ N03864
+ N03864$AtoD
+ $G_DPWR
+ $G_DGND
+ AtoDdefault
+       PARAMS: CAPACITANCE=   0     
* Moving X_U4.U1:OUT1 from analog node N03864 to new digital node N03864$DtoA
X$N03864_DtoA1
+ N03864$DtoA
+ N03864
+ $G_DPWR
+ $G_DGND
+ DtoAdefault
+       PARAMS: DRVH=  50     DRVL=  50     CAPACITANCE=   0     
*
* Analog/Digital interface power supply subcircuits
*
X$DIGIFPWR 0 DIGIFPWR


**** 12/18/23 20:11:37 ******* PSpice Lite (March 2016) ******* ID# 10813 ****

 ** Profile: "SCHEMATIC1-Buck"  [ F:\Cadence Example\buck-PSpiceFiles\SCHEMATIC1\Buck.sim ] 


 ****     Diode MODEL PARAMETERS


******************************************************************************




               31DQ10          X_U6A.dx        X_U6A.dy        
          IS   56.460000E-06  800.000000E-18  800.000000E-18 
           N    2.202                                        
         ISR  165.600000E-24                                 
          NR    4.955                                        
         IKF     .5957                                       
          BV  119.9                                          
         IBV  215.500000E-06                                 
          RS     .02827         1               1.000000E-03 
          TT   21.640000E-09                                 
         CJO  199.300000E-12                   10.000000E-12 
          VJ    1.873                                        
           M     .4572                                       
         XTI    2                                            


**** 12/18/23 20:11:37 ******* PSpice Lite (March 2016) ******* ID# 10813 ****

 ** Profile: "SCHEMATIC1-Buck"  [ F:\Cadence Example\buck-PSpiceFiles\SCHEMATIC1\Buck.sim ] 


 ****     BJT MODEL PARAMETERS


******************************************************************************




               X_U6A.qx        
               PNP             
       LEVEL    1            
          IS  800.000000E-18 
          BF  166.7          
          NF    1            
          BR    1            
          NR    1            
         ISS    0            
          RE    0            
          RC    0            
         CJE    0            
         VJE     .75         
         CJC    0            
         VJC     .75         
         MJC     .33         
        XCJC    1            
         CJS    0            
         VJS     .75         
          KF    0            
          AF    1            
          CN    2.2          
           D     .52         


**** 12/18/23 20:11:37 ******* PSpice Lite (March 2016) ******* ID# 10813 ****

 ** Profile: "SCHEMATIC1-Buck"  [ F:\Cadence Example\buck-PSpiceFiles\SCHEMATIC1\Buck.sim ] 


 ****     MOSFET MODEL PARAMETERS


******************************************************************************




               IRF540          
               NMOS            
       LEVEL    3            
           L    2.000000E-06 
           W     .94         
         VTO    3.136        
          KP   20.710000E-06 
       GAMMA    0            
         PHI     .6          
      LAMBDA    0            
          RD     .02252      
          RS     .02134      
          RG    5.557        
         RDS  444.400000E+03 
          IS    2.859000E-12 
          JS    0            
          PB     .8          
        PBSW     .8          
         CBD    2.408000E-09 
          CJ    0            
        CJSW    0            
          TT  142.000000E-09 
        CGSO    1.153000E-09 
        CGDO  445.700000E-12 
        CGBO    0            
         TOX  100.000000E-09 
          XJ    0            
       UCRIT   10.000000E+03 
       DELTA    0            
         ETA    0            
      DIOMOD    1            
         VFB    0            
        LETA    0            
        WETA    0            
          U0    0            
        TEMP    0            
         VDD    5            
       XPART    0            


**** 12/18/23 20:11:37 ******* PSpice Lite (March 2016) ******* ID# 10813 ****

 ** Profile: "SCHEMATIC1-Buck"  [ F:\Cadence Example\buck-PSpiceFiles\SCHEMATIC1\Buck.sim ] 


 ****     Current Controlled Switch MODEL PARAMETERS


******************************************************************************




               X_U6A.sw2       X_U6A.sw1       X_U6A.sw3       X_U6A.sw4       
         RON    1               1               1               1            
        ROFF   10.000000E+06   10.000000E+06   10.000000E+06   10.000000E+06 
         ION    0              -1.000000E-06   -1.000000E-06    0            
        IOFF   -1.000000E-06    0               0              -1.000000E-06 


**** 12/18/23 20:11:37 ******* PSpice Lite (March 2016) ******* ID# 10813 ****

 ** Profile: "SCHEMATIC1-Buck"  [ F:\Cadence Example\buck-PSpiceFiles\SCHEMATIC1\Buck.sim ] 


 ****     Digital Input MODEL PARAMETERS


******************************************************************************




               DIN74           
      S0NAME 0               
       S0TSW    3.500000E-09 
       S0RLO    7.13         
       S0RHI  389            
      S1NAME 1               
       S1TSW    5.500000E-09 
       S1RLO  467            
       S1RHI  200            
      S2NAME X               
       S2TSW    3.500000E-09 
       S2RLO   42.9          
       S2RHI  116            
      S3NAME R               
       S3TSW    3.500000E-09 
       S3RLO   42.9          
       S3RHI  116            
      S4NAME F               
       S4TSW    3.500000E-09 
       S4RLO   42.9          
       S4RHI  116            
      S5NAME Z               
       S5TSW    3.500000E-09 
       S5RLO  200.000000E+03 
       S5RHI  200.000000E+03 


**** 12/18/23 20:11:37 ******* PSpice Lite (March 2016) ******* ID# 10813 ****

 ** Profile: "SCHEMATIC1-Buck"  [ F:\Cadence Example\buck-PSpiceFiles\SCHEMATIC1\Buck.sim ] 


 ****     Digital Output MODEL PARAMETERS


******************************************************************************




               DO74            
    TIMESTEP  100.000000E-12 
      S0NAME X               
       S0VHI    2            
       S0VLO     .8          
      S1NAME 0               
       S1VHI     .8          
       S1VLO   -1.5          
      S2NAME R               
       S2VHI    1.4          
       S2VLO     .8          
      S3NAME R               
       S3VHI    2            
       S3VLO    1.3          
      S4NAME X               
       S4VHI    2            
       S4VLO     .8          
      S5NAME 1               
       S5VHI    7            
       S5VLO    2            
      S6NAME F               
       S6VHI    2            
       S6VLO    1.3          
      S7NAME F               
       S7VHI    1.4          
       S7VLO     .8          


**** 12/18/23 20:11:37 ******* PSpice Lite (March 2016) ******* ID# 10813 ****

 ** Profile: "SCHEMATIC1-Buck"  [ F:\Cadence Example\buck-PSpiceFiles\SCHEMATIC1\Buck.sim ] 


 ****     Digital Gate MODEL PARAMETERS


******************************************************************************




               D_PLD_GATE      
      TPLHMN    0            
      TPLHTY    0            
      TPLHMX    0            
      TPHLMN    0            
      TPHLTY    0            
      TPHLMX    0            


**** 12/18/23 20:11:37 ******* PSpice Lite (March 2016) ******* ID# 10813 ****

 ** Profile: "SCHEMATIC1-Buck"  [ F:\Cadence Example\buck-PSpiceFiles\SCHEMATIC1\Buck.sim ] 


 ****     Digital IO  MODEL PARAMETERS


******************************************************************************




               IO_PLD          IO_DFT          
       AtoD1                 AtoD_STD        
       AtoD2                 AtoD_STD_NX     
       AtoD3                 AtoD_STD        
       AtoD4                 AtoD_STD_NX     
       DtoA1                 DtoA_STD        
       DtoA2                 DtoA_STD        
       DtoA3                 DtoA_STD        
       DtoA4                 DtoA_STD        
       TPWRT  100.000000E+03  100.000000E+03 


**** 12/18/23 20:11:37 ******* PSpice Lite (March 2016) ******* ID# 10813 ****

 ** Profile: "SCHEMATIC1-Buck"  [ F:\Cadence Example\buck-PSpiceFiles\SCHEMATIC1\Buck.sim ] 


 ****     INITIAL TRANSIENT SOLUTION       TEMPERATURE =   27.000 DEG C


******************************************************************************



 NODE   VOLTAGE     NODE   VOLTAGE     NODE   VOLTAGE     NODE   VOLTAGE


(   V+)  -11.0550  (N00197) 381.6E-06 (N00230)   25.0000 (N00237) 381.6E-06     

(N00253) 377.8E-06 (N00257) 380.6E-06 (N01356) 377.8E-06 (N01632)    0.0000     

(N01777) 2.794E-06 (N01931)    0.0000 (N02251)    -.0027 (N02269)    -.0038     

(N02283)  -11.8900 (N02295)    -.0038 (N02620) 2.794E-06 (N02675)    3.5000     

(N03841)     .1000 (N03864)     .0900 (N04324)     .0900 (N06056)  -12.0000     

(N06430)    0.0000 ($G_DGND)    0.0000                   ($G_DPWR)    5.0000    

(X_U6A.6)     .0029                   (X_U6A.7)  -11.9200                       

(X_U6A.8)  -11.9200                   (X_U6A.9)    0.0000                       

(X_U6A.a) 595.5E-06                   (X_U6A.b)  -11.9990                       

(M_UN0001)   12.0000                  (X_U6A.10)     .6034                      

(X_U6A.11)  -11.9610                  (X_U6A.12)  -11.9640                      

(X_U6A.13)     .5897                  (X_U6A.14)     .5910                      

(X_U6A.53)  -12.5550                  (X_U6A.54)  -11.1780                      

(X_U6A.90)    -.5966                  (X_U6A.91)   40.0000                      

(X_U6A.92)  -40.0000                  (X_U6A.99)  -11.5270                  



 DGTL NODE : STATE  DGTL NODE : STATE  DGTL NODE : STATE  DGTL NODE : STATE


(N04324$DtoA) : 0  (N03864$DtoA) : 0  (N03841$AtoD) : 0  (N02675$AtoD) : 1      

(  N03889) : 1     (N03864$AtoD) : 0  (N03841$AtoD2) : 0                    




    VOLTAGE SOURCE CURRENTS
    NAME         CURRENT

    V_V1        -5.625E-05
    V_V2        -2.000E-13
    V_V3         0.000E+00
    V_V4        -2.494E-06
    V_V5         4.017E-08
    X_U6A.vb     2.883E-08
    X_U6A.vc    -1.181E-04
    X_U6A.ve    -7.134E-04
    X_U6A.vlim  -5.966E-04
    X_U6A.vlp   -4.060E-11
    X_U6A.vln   -3.941E-11
    X$DIGIFPWR.VDPWR  -2.525E-02
    X$DIGIFPWR.VDGND  -5.090E-06

    TOTAL POWER DISSIPATION   1.28E-01  WATTS


**** 12/18/23 20:11:37 ******* PSpice Lite (March 2016) ******* ID# 10813 ****

 ** Profile: "SCHEMATIC1-Buck"  [ F:\Cadence Example\buck-PSpiceFiles\SCHEMATIC1\Buck.sim ] 


 ****     SIMULATION ERRORS


******************************************************************************




DIGITAL Message ID#1 (WARNING):
AMBIGUITY CONVERGENCE Hazard at time 1.1ns
  Device: X_U5.U1
  NODEs: N03841$AtoD (IN1),
         N03889 (IN2) => N04324$DtoA (OUT1)  

DIGITAL Message ID#2 (SERIOUS):
PERSISTENT Hazard at time 1.1ns
  On D/A Node "N04324$DtoA"
  See Message ID#1 for probable cause.

DIGITAL Message ID#3 (SERIOUS):
PERSISTENT Hazard at time 1.1ns
  Device: On D/A interface X$N04324_DtoA1.N1, "N04324$DtoA"
  See Message ID#1 for probable cause.

DIGITAL Message ID#4 (WARNING):
AMBIGUITY CONVERGENCE Hazard at time 107.3ns
  Device: X_U5.U1
  NODEs: N03841$AtoD (IN1),
         N03889 (IN2) => N04324$DtoA (OUT1)  

DIGITAL Message ID#5 (SERIOUS):
PERSISTENT Hazard at time 107.3ns
  On D/A Node "N04324$DtoA"
  See Message ID#4 for probable cause.

DIGITAL Message ID#6 (SERIOUS):
PERSISTENT Hazard at time 107.3ns
  Device: On D/A interface X$N04324_DtoA1.N1, "N04324$DtoA"
  See Message ID#4 for probable cause.

DIGITAL Message ID#7 (SERIOUS):
PERSISTENT Hazard at time 109ns
  On D/A Node "N04324$DtoA"
  See Message ID#4 for probable cause.

DIGITAL Message ID#8 (WARNING):
AMBIGUITY CONVERGENCE Hazard at time 5.0011us
  Device: X_U5.U1
  NODEs: N03841$AtoD (IN1),
         N03889 (IN2) => N04324$DtoA (OUT1)  

DIGITAL Message ID#9 (SERIOUS):
PERSISTENT Hazard at time 5.0011us
  On D/A Node "N04324$DtoA"
  See Message ID#8 for probable cause.

DIGITAL Message ID#10 (SERIOUS):
PERSISTENT Hazard at time 5.0011us
  Device: On D/A interface X$N04324_DtoA1.N1, "N04324$DtoA"
  See Message ID#8 for probable cause.

DIGITAL Message ID#11 (WARNING):
AMBIGUITY CONVERGENCE Hazard at time 5.1073us
  Device: X_U5.U1
  NODEs: N03841$AtoD (IN1),
         N03889 (IN2) => N04324$DtoA (OUT1)  

DIGITAL Message ID#12 (SERIOUS):
PERSISTENT Hazard at time 5.1073us
  On D/A Node "N04324$DtoA"
  See Message ID#11 for probable cause.

DIGITAL Message ID#13 (SERIOUS):
PERSISTENT Hazard at time 5.1073us
  Device: On D/A interface X$N04324_DtoA1.N1, "N04324$DtoA"
  See Message ID#11 for probable cause.

DIGITAL Message ID#14 (SERIOUS):
PERSISTENT Hazard at time 5.109us
  On D/A Node "N04324$DtoA"
  See Message ID#11 for probable cause.

DIGITAL Message ID#15 (WARNING):
AMBIGUITY CONVERGENCE Hazard at time 10.0011us
  Device: X_U5.U1
  NODEs: N03841$AtoD (IN1),
         N03889 (IN2) => N04324$DtoA (OUT1)  

DIGITAL Message ID#16 (SERIOUS):
PERSISTENT Hazard at time 10.0011us
  On D/A Node "N04324$DtoA"
  See Message ID#15 for probable cause.

DIGITAL Message ID#17 (SERIOUS):
PERSISTENT Hazard at time 10.0011us
  Device: On D/A interface X$N04324_DtoA1.N1, "N04324$DtoA"
  See Message ID#15 for probable cause.

DIGITAL Message ID#18 (WARNING):
AMBIGUITY CONVERGENCE Hazard at time 10.1073us
  Device: X_U5.U1
  NODEs: N03841$AtoD (IN1),
         N03889 (IN2) => N04324$DtoA (OUT1)  

DIGITAL Message ID#19 (SERIOUS):
PERSISTENT Hazard at time 10.1073us
  On D/A Node "N04324$DtoA"
  See Message ID#18 for probable cause.

DIGITAL Message ID#20 (SERIOUS):
PERSISTENT Hazard at time 10.1073us
  Device: On D/A interface X$N04324_DtoA1.N1, "N04324$DtoA"
  See Message ID#18 for probable cause.

DIGITAL Message ID#21 (SERIOUS):
PERSISTENT Hazard at time 10.109us
  On D/A Node "N04324$DtoA"
  See Message ID#18 for probable cause.

DIGITAL Message ID#22 (WARNING):
AMBIGUITY CONVERGENCE Hazard at time 15.0011us
  Device: X_U5.U1
  NODEs: N03841$AtoD (IN1),
         N03889 (IN2) => N04324$DtoA (OUT1)  

DIGITAL Message ID#23 (SERIOUS):
PERSISTENT Hazard at time 15.0011us
  On D/A Node "N04324$DtoA"
  See Message ID#22 for probable cause.

DIGITAL Message ID#24 (SERIOUS):
PERSISTENT Hazard at time 15.0011us
  Device: On D/A interface X$N04324_DtoA1.N1, "N04324$DtoA"
  See Message ID#22 for probable cause.

DIGITAL Message ID#25 (WARNING):
AMBIGUITY CONVERGENCE Hazard at time 15.1073us
  Device: X_U5.U1
  NODEs: N03841$AtoD (IN1),
         N03889 (IN2) => N04324$DtoA (OUT1)  

DIGITAL Message ID#26 (SERIOUS):
PERSISTENT Hazard at time 15.1073us
  On D/A Node "N04324$DtoA"
  See Message ID#25 for probable cause.

DIGITAL Message ID#27 (SERIOUS):
PERSISTENT Hazard at time 15.1073us
  Device: On D/A interface X$N04324_DtoA1.N1, "N04324$DtoA"
  See Message ID#25 for probable cause.

DIGITAL Message ID#28 (SERIOUS):
PERSISTENT Hazard at time 15.109us
  On D/A Node "N04324$DtoA"
  See Message ID#25 for probable cause.

DIGITAL Message ID#29 (WARNING):
AMBIGUITY CONVERGENCE Hazard at time 20.0011us
  Device: X_U5.U1
  NODEs: N03841$AtoD (IN1),
         N03889 (IN2) => N04324$DtoA (OUT1)  

DIGITAL Message ID#30 (SERIOUS):
PERSISTENT Hazard at time 20.0011us
  On D/A Node "N04324$DtoA"
  See Message ID#29 for probable cause.

DIGITAL Message ID#31 (SERIOUS):
PERSISTENT Hazard at time 20.0011us
  Device: On D/A interface X$N04324_DtoA1.N1, "N04324$DtoA"
  See Message ID#29 for probable cause.

DIGITAL Message ID#32 (WARNING):
AMBIGUITY CONVERGENCE Hazard at time 20.1073us
  Device: X_U5.U1
  NODEs: N03841$AtoD (IN1),
         N03889 (IN2) => N04324$DtoA (OUT1)  

DIGITAL Message ID#33 (SERIOUS):
PERSISTENT Hazard at time 20.1073us
  On D/A Node "N04324$DtoA"
  See Message ID#32 for probable cause.

DIGITAL Message ID#34 (SERIOUS):
PERSISTENT Hazard at time 20.1073us
  Device: On D/A interface X$N04324_DtoA1.N1, "N04324$DtoA"
  See Message ID#32 for probable cause.

DIGITAL Message ID#35 (SERIOUS):
PERSISTENT Hazard at time 20.109us
  On D/A Node "N04324$DtoA"
  See Message ID#32 for probable cause.

DIGITAL Message ID#36 (WARNING):
AMBIGUITY CONVERGENCE Hazard at time 25.0011us
  Device: X_U5.U1
  NODEs: N03841$AtoD (IN1),
         N03889 (IN2) => N04324$DtoA (OUT1)  

DIGITAL Message ID#37 (SERIOUS):
PERSISTENT Hazard at time 25.0011us
  On D/A Node "N04324$DtoA"
  See Message ID#36 for probable cause.

DIGITAL Message ID#38 (SERIOUS):
PERSISTENT Hazard at time 25.0011us
  Device: On D/A interface X$N04324_DtoA1.N1, "N04324$DtoA"
  See Message ID#36 for probable cause.

DIGITAL Message ID#39 (WARNING):
AMBIGUITY CONVERGENCE Hazard at time 25.1073us
  Device: X_U5.U1
  NODEs: N03841$AtoD (IN1),
         N03889 (IN2) => N04324$DtoA (OUT1)  

DIGITAL Message ID#40 (SERIOUS):
PERSISTENT Hazard at time 25.1073us
  On D/A Node "N04324$DtoA"
  See Message ID#39 for probable cause.

DIGITAL Message ID#41 (SERIOUS):
PERSISTENT Hazard at time 25.1073us
  Device: On D/A interface X$N04324_DtoA1.N1, "N04324$DtoA"
  See Message ID#39 for probable cause.

DIGITAL Message ID#42 (SERIOUS):
PERSISTENT Hazard at time 25.109us
  On D/A Node "N04324$DtoA"
  See Message ID#39 for probable cause.
Reducing minimum delta to make the circuit converge.
Reducing minimum delta to make the circuit converge.
Reducing minimum delta to make the circuit converge.
Reducing minimum delta to make the circuit converge.
Reducing minimum delta to make the circuit converge.

ERROR(ORPSIM-15138): Convergence problem in Transient Analysis at Time =  28.82E-06.
         Time step =  146.2E-21, minimum allowable step size =  1.000E-18

  These voltages failed to converge:

    V(X_U6A.6)                =   607.17uV  \   579.08uV
    V(X_U6A.90)               =    78.34uV  \  -499.20uV
    V(X_U6A.a)                =    -15.55V  \    -2.546V
    V(X_U6A.b)                =     25.34V  \    -5.883V

  These supply currents failed to converge:

    I(E_E4)                   =   -16.77nA  \   -27.53pA
    I(X_U6A.egnd)             =   -50.49nA  \   529.77nA
    I(V_V1)                   =   -60.39uA  \   -56.26uA
    I(V_V4)                   =    2.244uA  \   -2.683mA
    I(X_U6A.vb)               =    6.072nA  \    5.791nA
    I(X_U6A.vc)               =  -783.87uA  \    3.870uA
    I(X_U6A.ve)               =  -793.59uA  \   108.94nA
    I(X_U6A.vlim)             =    78.34nA  \  -499.20nA

  These devices failed to converge:
    D_D2      M_M1      



  Last node voltages tried were:

 NODE   VOLTAGE     NODE   VOLTAGE     NODE   VOLTAGE     NODE   VOLTAGE


(   V+)   -4.9964  (N00197) 381.6E-06 (N00230)   25.0000 (N00237) 381.5E-06     

(N00253) 377.9E-06 (N00257) 380.7E-06 (N01356) 377.9E-06 (N01632)    0.0000     

(N01777) 2.794E-06 (N01931)     .2090 (N02251)     .0082 (N02269)     .0115     

(N02283)  -11.4760 (N02295)     .3886 (N02620)     .2090 (N02675)    3.5000     

(N03841)     .1000 (N03864)     .0900 (N04324)     .0900 (N06056)  -12.0000     

(N06430)     .0180 ($G_DGND)    0.0000                   ($G_DPWR)    5.0000    

(X_U6A.6) 607.2E-06                   (X_U6A.7)  -11.4760                       

(X_U6A.8)  -11.4760                   (X_U6A.9)    0.0000                       

(X_U6A.a)  -15.5510                   (X_U6A.b)   25.3360                       

(M_UN0001)   12.0000                  (X_U6A.10)     .6206                      

(X_U6A.11)  -11.9590                  (X_U6A.12)  -11.9650                      

(X_U6A.13)     .6062                  (X_U6A.14)     .6084                      

(X_U6A.53)   -6.4964                  (X_U6A.54)  -11.1780                      

(X_U6A.90) 78.34E-06                  (X_U6A.91)   40.0000                      

(X_U6A.92)  -40.0000                  (X_U6A.99)   -8.4982                  



 DGTL NODE : STATE  DGTL NODE : STATE  DGTL NODE : STATE  DGTL NODE : STATE


(N04324$DtoA) : 0  (N03864$DtoA) : 0  (N03841$AtoD) : 0  (N02675$AtoD) : 1      

(  N03889) : 1     (N03864$AtoD) : 0  (N03841$AtoD2) : 0                    


**** Interrupt ****
