
**** 01/02/25 10:55:03 ******* PSpice Lite (March 2016) ******* ID# 10813 ****

 ** Profile: "SCHEMATIC1-Buck"  [ D:\Gopal\orcad\buck-pspicefiles\schematic1\buck.sim ] 


 ****     CIRCUIT DESCRIPTION


******************************************************************************




** Creating circuit file "Buck.cir" 
** WARNING: THIS AUTOMATICALLY GENERATED FILE MAY BE OVERWRITTEN BY SUBSEQUENT SIMULATIONS

*Libraries: 
* Profile Libraries :
* Local Libraries :
.LIB "../../../buck-pspicefiles/buck.lib" 
* From [PSPICE NETLIST] section of C:\SPB_Data\cdssetup\OrCAD_PSpice\17.2.0\PSpice.ini file:
.lib "C:\Cadence\SPB_16.6\tools\capture\library\MOSFET\PMOS.lib" 
.lib "C:\Cadence\SPB_16.6\tools\capture\library\MOSFET\NMOS.lib" 
.lib "nomd.lib" 

*Analysis directives: 
.TRAN  0 1.5ms  0 0.53372u 
.OPTIONS ADVCONV
.PROBE64 V(alias(*)) I(alias(*)) W(alias(*)) NOISE(alias(*)) 
.INC "..\SCHEMATIC1.net" 



**** INCLUDING SCHEMATIC1.net ****
* source BUCK
V_V1         N00230 0 25
M_M1         N00230 N01632 N00237 N00237 IRF540
R_R1         N00197 N00257  0.017 TC=0,0 
R_R2         N01356 VBUCK  0.01 TC=0,0 
R_R3         0 VBUCK  6.8 TC=0,0 
C_C1         0 N01356  210u  TC=0,0 
L_L1         N00237 N00197  25u  
E_E1         N01777 0 POLY(1) N00257 VBUCK 0.0 5
R_R4         N00257 VBUCK  0.05 TC=0,0 
E_SUM1         N02620 0 VALUE {V(N01777)+V(N01931)}
I_I1         N01931 0 DC 0Adc AC 0Aac
+PULSE 0 -278u 100n 4.95u 2n 2n 5u
R_R5         0 N01931  1k TC=0,0 
R_Rcomp         N02269 N02295 R_Rcomp 100K TC=0,0 
.model        R_Rcomp RES R=1     DEV/UNIFORM 5%/-5% TC1=0 TC2=0
R_Rcomp1         N02269 VCONTROL R_Rcomp1 10e6 TC=0,0 
.model        R_Rcomp1 RES R=1     DEV/UNIFORM 5%/-5% TC1=0 TC2=0
R_R8         N02251 N02269 R_R8 1k TC=0,0 
.model        R_R8 RES R=1     DEV/UNIFORM 5%/-5% TC1=0 TC2=0
R_R9         0 N02251 R_R9 3.25k TC=0,0 
.model        R_R9 RES R=1     DEV/UNIFORM 5%/-5% TC1=0 TC2=0
R_R10         N02251 VBUCK R_R10 9.76k TC=0,0 
.model        R_R10 RES R=1     DEV/UNIFORM 5%/-5% TC1=0 TC2=0
C_Chf         N02269 VCONTROL C_Chf 30p  TC=0,0 
.model        C_Chf CAP C=1     DEV/UNIFORM 5%/-5% TC1=0 TC2=0 VC1=0 VC2=0
C_Ccomp         N02295 VCONTROL C_Ccomp 2n  TC=0,0 
.model        C_Ccomp CAP C=1     DEV/UNIFORM 5%/-5% TC1=0 TC2=0 VC1=0 VC2=0
E_E3         N02675 0 VALUE { if(V(N02620) >V( VCONTROL),3.5,0) }
X_U3         N03841 N03864 N03889 $G_DPWR $G_DGND NOR2
X_U4         N03889 N02675 N03864 $G_DPWR $G_DGND NOR2
X_U5         N03841 N03889 N04324 $G_DPWR $G_DGND NOR2
E_E4         N01632 0 VALUE { if(V(N04324)>1.5,30,0) }
V_V2         N03841 0  
+PULSE 0.1 3.5 0 5n 5n 100n 5u
R_R11         0 N03864  1Meg TC=0,0 
C_C5         0 N04324  1p  TC=0,0 
C_C6         0 N04324  1p  TC=0,0 
C_C7         0 N01632  1p  TC=0,0 
X_U6A         N06430 N02269 N06912 N06056 VCONTROL LM324
V_V3         N06912 0 12v
V_V4         0 N06056 12
V_V5         N06430 0  
+PULSE 0 2.5 0 4m 2m 1 2
D_D2         0 N14809 31DQ10 
V_V6         N14809 0 25
D_D1         0 N00237 Dbreak 

**** RESUMING Buck.cir ****
.END


**** Generated AtoD and DtoA Interfaces ****

*
* Analog/Digital interface for node N02675
*
* Moving X_U4.U1:IN2 from analog node N02675 to new digital node N02675$AtoD
X$N02675_AtoD1
+ N02675
+ N02675$AtoD
+ $G_DPWR
+ $G_DGND
+ AtoDdefault
+       PARAMS: CAPACITANCE=   0     
*
* Analog/Digital interface for node N04324
*
* Moving X_U5.U1:OUT1 from analog node N04324 to new digital node N04324$DtoA
X$N04324_DtoA1
+ N04324$DtoA
+ N04324
+ $G_DPWR
+ $G_DGND
+ DtoAdefault
+       PARAMS: DRVH=  50     DRVL=  50     CAPACITANCE=   0     
*
* Analog/Digital interface for node N03841
*
* Moving X_U5.U1:IN1 from analog node N03841 to new digital node N03841$AtoD
X$N03841_AtoD1
+ N03841
+ N03841$AtoD
+ $G_DPWR
+ $G_DGND
+ AtoDdefault
+       PARAMS: CAPACITANCE=   0     
* Moving X_U3.U1:IN1 from analog node N03841 to new digital node N03841$AtoD2
X$N03841_AtoD2
+ N03841
+ N03841$AtoD2
+ $G_DPWR
+ $G_DGND
+ AtoDdefault
+       PARAMS: CAPACITANCE=   0     
*
* Analog/Digital interface for node N03864
*
* Moving X_U3.U1:IN2 from analog node N03864 to new digital node N03864$AtoD
X$N03864_AtoD1
+ N03864
+ N03864$AtoD
+ $G_DPWR
+ $G_DGND
+ AtoDdefault
+       PARAMS: CAPACITANCE=   0     
* Moving X_U4.U1:OUT1 from analog node N03864 to new digital node N03864$DtoA
X$N03864_DtoA1
+ N03864$DtoA
+ N03864
+ $G_DPWR
+ $G_DGND
+ DtoAdefault
+       PARAMS: DRVH=  50     DRVL=  50     CAPACITANCE=   0     
*
* Analog/Digital interface power supply subcircuits
*
X$DIGIFPWR 0 DIGIFPWR


**** 01/02/25 10:55:03 ******* PSpice Lite (March 2016) ******* ID# 10813 ****

 ** Profile: "SCHEMATIC1-Buck"  [ D:\Gopal\orcad\buck-pspicefiles\schematic1\buck.sim ] 


 ****     Diode MODEL PARAMETERS


******************************************************************************




               31DQ10          Dbreak          X_U6A.dx        X_U6A.dy        
          IS   56.460000E-06   10.000000E-15  800.000000E-18  800.000000E-18 
           N    2.202                                                        
         ISR  165.600000E-24                                                 
          NR    4.955                                                        
         IKF     .5957                                                       
          BV  119.9                                                          
         IBV  215.500000E-06                                                 
          RS     .02827          .1             1               1.000000E-03 
          TT   21.640000E-09                                                 
         CJO  199.300000E-12  100.000000E-15                   10.000000E-12 
          VJ    1.873                                                        
           M     .4572                                                       
         XTI    2                                                            


**** 01/02/25 10:55:03 ******* PSpice Lite (March 2016) ******* ID# 10813 ****

 ** Profile: "SCHEMATIC1-Buck"  [ D:\Gopal\orcad\buck-pspicefiles\schematic1\buck.sim ] 


 ****     BJT MODEL PARAMETERS


******************************************************************************




               X_U6A.qx        
               PNP             
       LEVEL    1            
          IS  800.000000E-18 
          BF  166.7          
          NF    1            
          BR    1            
          NR    1            
         ISS    0            
          RE    0            
          RC    0            
         CJE    0            
         VJE     .75         
         CJC    0            
         VJC     .75         
         MJC     .33         
        XCJC    1            
         CJS    0            
         VJS     .75         
          KF    0            
          AF    1            
          CN    2.2          
           D     .52         


**** 01/02/25 10:55:03 ******* PSpice Lite (March 2016) ******* ID# 10813 ****

 ** Profile: "SCHEMATIC1-Buck"  [ D:\Gopal\orcad\buck-pspicefiles\schematic1\buck.sim ] 


 ****     MOSFET MODEL PARAMETERS


******************************************************************************




               IRF540          
               NMOS            
       LEVEL    3            
           L    2.000000E-06 
           W     .94         
         VTO    3.136        
          KP   20.710000E-06 
       GAMMA    0            
         PHI     .6          
      LAMBDA    0            
          RD     .02252      
          RS     .02134      
          RG    5.557        
         RDS  444.400000E+03 
          IS    2.859000E-12 
          JS    0            
          PB     .8          
        PBSW     .8          
         CBD    2.408000E-09 
          CJ    0            
        CJSW    0            
          TT  142.000000E-09 
        CGSO    1.153000E-09 
        CGDO  445.700000E-12 
        CGBO    0            
         TOX  100.000000E-09 
          XJ    0            
       UCRIT   10.000000E+03 
       DELTA    0            
         ETA    0            
      DIOMOD    1            
         VFB    0            
        LETA    0            
        WETA    0            
          U0    0            
        TEMP    0            
         VDD    5            
       XPART    0            


**** 01/02/25 10:55:03 ******* PSpice Lite (March 2016) ******* ID# 10813 ****

 ** Profile: "SCHEMATIC1-Buck"  [ D:\Gopal\orcad\buck-pspicefiles\schematic1\buck.sim ] 


 ****     Resistor MODEL PARAMETERS


******************************************************************************




               R_Rcomp         R_Rcomp1        R_R8            R_R9            
           R    1               1               1               1            


               R_R10           
           R    1            


**** 01/02/25 10:55:03 ******* PSpice Lite (March 2016) ******* ID# 10813 ****

 ** Profile: "SCHEMATIC1-Buck"  [ D:\Gopal\orcad\buck-pspicefiles\schematic1\buck.sim ] 


 ****     Capacitor MODEL PARAMETERS


******************************************************************************




               C_Chf           C_Ccomp         
           C    1               1            


**** 01/02/25 10:55:03 ******* PSpice Lite (March 2016) ******* ID# 10813 ****

 ** Profile: "SCHEMATIC1-Buck"  [ D:\Gopal\orcad\buck-pspicefiles\schematic1\buck.sim ] 


 ****     Current Controlled Switch MODEL PARAMETERS


******************************************************************************




               X_U6A.sw2       X_U6A.sw1       X_U6A.sw3       X_U6A.sw4       
         RON    1               1               1               1            
        ROFF   10.000000E+06   10.000000E+06   10.000000E+06   10.000000E+06 
         ION    0              -1.000000E-06   -1.000000E-06    0            
        IOFF   -1.000000E-06    0               0              -1.000000E-06 


**** 01/02/25 10:55:03 ******* PSpice Lite (March 2016) ******* ID# 10813 ****

 ** Profile: "SCHEMATIC1-Buck"  [ D:\Gopal\orcad\buck-pspicefiles\schematic1\buck.sim ] 


 ****     Digital Input MODEL PARAMETERS


******************************************************************************




               DIN74           
      S0NAME 0               
       S0TSW    3.500000E-09 
       S0RLO    7.13         
       S0RHI  389            
      S1NAME 1               
       S1TSW    5.500000E-09 
       S1RLO  467            
       S1RHI  200            
      S2NAME X               
       S2TSW    3.500000E-09 
       S2RLO   42.9          
       S2RHI  116            
      S3NAME R               
       S3TSW    3.500000E-09 
       S3RLO   42.9          
       S3RHI  116            
      S4NAME F               
       S4TSW    3.500000E-09 
       S4RLO   42.9          
       S4RHI  116            
      S5NAME Z               
       S5TSW    3.500000E-09 
       S5RLO  200.000000E+03 
       S5RHI  200.000000E+03 


**** 01/02/25 10:55:03 ******* PSpice Lite (March 2016) ******* ID# 10813 ****

 ** Profile: "SCHEMATIC1-Buck"  [ D:\Gopal\orcad\buck-pspicefiles\schematic1\buck.sim ] 


 ****     Digital Output MODEL PARAMETERS


******************************************************************************




               DO74            
    TIMESTEP  100.000000E-12 
      S0NAME X               
       S0VHI    2            
       S0VLO     .8          
      S1NAME 0               
       S1VHI     .8          
       S1VLO   -1.5          
      S2NAME R               
       S2VHI    1.4          
       S2VLO     .8          
      S3NAME R               
       S3VHI    2            
       S3VLO    1.3          
      S4NAME X               
       S4VHI    2            
       S4VLO     .8          
      S5NAME 1               
       S5VHI    7            
       S5VLO    2            
      S6NAME F               
       S6VHI    2            
       S6VLO    1.3          
      S7NAME F               
       S7VHI    1.4          
       S7VLO     .8          


**** 01/02/25 10:55:03 ******* PSpice Lite (March 2016) ******* ID# 10813 ****

 ** Profile: "SCHEMATIC1-Buck"  [ D:\Gopal\orcad\buck-pspicefiles\schematic1\buck.sim ] 


 ****     Digital Gate MODEL PARAMETERS


******************************************************************************




               D_PLD_GATE      
      TPLHMN    0            
      TPLHTY    0            
      TPLHMX    0            
      TPHLMN    0            
      TPHLTY    0            
      TPHLMX    0            


**** 01/02/25 10:55:03 ******* PSpice Lite (March 2016) ******* ID# 10813 ****

 ** Profile: "SCHEMATIC1-Buck"  [ D:\Gopal\orcad\buck-pspicefiles\schematic1\buck.sim ] 


 ****     Digital IO  MODEL PARAMETERS


******************************************************************************




               IO_PLD          IO_DFT          
       AtoD1                 AtoD_STD        
       AtoD2                 AtoD_STD_NX     
       AtoD3                 AtoD_STD        
       AtoD4                 AtoD_STD_NX     
       DtoA1                 DtoA_STD        
       DtoA2                 DtoA_STD        
       DtoA3                 DtoA_STD        
       DtoA4                 DtoA_STD        
       TPWRT  100.000000E+03  100.000000E+03 


**** 01/02/25 10:55:03 ******* PSpice Lite (March 2016) ******* ID# 10813 ****

 ** Profile: "SCHEMATIC1-Buck"  [ D:\Gopal\orcad\buck-pspicefiles\schematic1\buck.sim ] 


 ****     INITIAL TRANSIENT SOLUTION       TEMPERATURE =   27.000 DEG C


******************************************************************************



 NODE   VOLTAGE     NODE   VOLTAGE     NODE   VOLTAGE     NODE   VOLTAGE


(VBUCK) 382.2E-06  (N00197) 386.0E-06 (N00230)   25.0000 (N00237) 386.0E-06     

(N00257) 385.0E-06 (N01356) 382.2E-06 (N01632)    0.0000 (N01777) 14.06E-06     

(N01931)    0.0000 (N02251)-99.86E-06 (N02269)-180.0E-06 (N02295)-180.0E-06     

(N02620) 14.06E-06 (N02675)    3.5000 (N03841)     .1000 (N03864)     .0900     

(N04324)     .0900 (N06056)  -12.0000 (N06430)    0.0000 (N06912)   12.0000     

(N14809)   25.0000 ($G_DGND)    0.0000                   ($G_DPWR)    5.0000    

(X_U6A.6) 235.8E-06                   (X_U6A.7)   -1.2508                       

(X_U6A.8)   -1.2508                   (X_U6A.9)    0.0000                       

(X_U6A.a)   12.0000                   (X_U6A.b)-4.551E-06                       

(VCONTROL)   -1.2508                  (X_U6A.10)     .6076                      

(X_U6A.11)  -11.9600                  (X_U6A.12)  -11.9600                      

(X_U6A.13)     .5937                  (X_U6A.14)     .5937                      

(X_U6A.53)   10.5000                  (X_U6A.54)  -11.1780                      

(X_U6A.90)-125.1E-06                  (X_U6A.91)   40.0000                      

(X_U6A.92)  -40.0000                  (X_U6A.99)    0.0000                  



 DGTL NODE : STATE  DGTL NODE : STATE  DGTL NODE : STATE  DGTL NODE : STATE


(N04324$DtoA) : 0  (N03864$DtoA) : 0  (N03841$AtoD) : 0  (N02675$AtoD) : 1      

(  N03889) : 1     (N03864$AtoD) : 0  (N03841$AtoD2) : 0                    




    VOLTAGE SOURCE CURRENTS
    NAME         CURRENT

    V_V1        -5.625E-05
    V_V2        -2.000E-13
    V_V3        -2.660E-03
    V_V4        -2.660E-03
    V_V5         4.474E-08
    V_V6        -5.646E-05
    X_U6A.vb     2.358E-09
    X_U6A.vc     1.175E-11
    X_U6A.ve     1.146E-11
    X_U6A.vlim  -1.251E-07
    X_U6A.vlp   -4.000E-11
    X_U6A.vln   -4.000E-11
    X$DIGIFPWR.VDPWR  -2.525E-02
    X$DIGIFPWR.VDGND  -5.090E-06

    TOTAL POWER DISSIPATION   1.93E-01  WATTS


**** 01/02/25 10:55:03 ******* PSpice Lite (March 2016) ******* ID# 10813 ****

 ** Profile: "SCHEMATIC1-Buck"  [ D:\Gopal\orcad\buck-pspicefiles\schematic1\buck.sim ] 


 ****     SIMULATION ERRORS


******************************************************************************




DIGITAL Message ID#1 (WARNING):
AMBIGUITY CONVERGENCE Hazard at time 1.1ns
  Device: X_U5.U1
  NODEs: N03841$AtoD (IN1),
         N03889 (IN2) => N04324$DtoA (OUT1)  

DIGITAL Message ID#2 (SERIOUS):
PERSISTENT Hazard at time 1.1ns
  On D/A Node "N04324$DtoA"
  See Message ID#1 for probable cause.

DIGITAL Message ID#3 (SERIOUS):
PERSISTENT Hazard at time 1.1ns
  Device: On D/A interface X$N04324_DtoA1.N1, "N04324$DtoA"
  See Message ID#1 for probable cause.

DIGITAL Message ID#4 (WARNING):
AMBIGUITY CONVERGENCE Hazard at time 107.3ns
  Device: X_U5.U1
  NODEs: N03841$AtoD (IN1),
         N03889 (IN2) => N04324$DtoA (OUT1)  

DIGITAL Message ID#5 (SERIOUS):
PERSISTENT Hazard at time 107.3ns
  On D/A Node "N04324$DtoA"
  See Message ID#4 for probable cause.

DIGITAL Message ID#6 (SERIOUS):
PERSISTENT Hazard at time 107.3ns
  Device: On D/A interface X$N04324_DtoA1.N1, "N04324$DtoA"
  See Message ID#4 for probable cause.

DIGITAL Message ID#7 (SERIOUS):
PERSISTENT Hazard at time 109ns
  On D/A Node "N04324$DtoA"
  See Message ID#4 for probable cause.

DIGITAL Message ID#8 (WARNING):
AMBIGUITY CONVERGENCE Hazard at time 5.0011us
  Device: X_U5.U1
  NODEs: N03841$AtoD (IN1),
         N03889 (IN2) => N04324$DtoA (OUT1)  

DIGITAL Message ID#9 (SERIOUS):
PERSISTENT Hazard at time 5.0011us
  On D/A Node "N04324$DtoA"
  See Message ID#8 for probable cause.

DIGITAL Message ID#10 (SERIOUS):
PERSISTENT Hazard at time 5.0011us
  Device: On D/A interface X$N04324_DtoA1.N1, "N04324$DtoA"
  See Message ID#8 for probable cause.

DIGITAL Message ID#11 (WARNING):
AMBIGUITY CONVERGENCE Hazard at time 5.1073us
  Device: X_U5.U1
  NODEs: N03841$AtoD (IN1),
         N03889 (IN2) => N04324$DtoA (OUT1)  

DIGITAL Message ID#12 (SERIOUS):
PERSISTENT Hazard at time 5.1073us
  On D/A Node "N04324$DtoA"
  See Message ID#11 for probable cause.

DIGITAL Message ID#13 (SERIOUS):
PERSISTENT Hazard at time 5.1073us
  Device: On D/A interface X$N04324_DtoA1.N1, "N04324$DtoA"
  See Message ID#11 for probable cause.

DIGITAL Message ID#14 (SERIOUS):
PERSISTENT Hazard at time 5.109us
  On D/A Node "N04324$DtoA"
  See Message ID#11 for probable cause.

DIGITAL Message ID#15 (WARNING):
AMBIGUITY CONVERGENCE Hazard at time 10.0011us
  Device: X_U5.U1
  NODEs: N03841$AtoD (IN1),
         N03889 (IN2) => N04324$DtoA (OUT1)  

DIGITAL Message ID#16 (SERIOUS):
PERSISTENT Hazard at time 10.0011us
  On D/A Node "N04324$DtoA"
  See Message ID#15 for probable cause.

DIGITAL Message ID#17 (SERIOUS):
PERSISTENT Hazard at time 10.0011us
  Device: On D/A interface X$N04324_DtoA1.N1, "N04324$DtoA"
  See Message ID#15 for probable cause.

DIGITAL Message ID#18 (WARNING):
AMBIGUITY CONVERGENCE Hazard at time 10.1073us
  Device: X_U5.U1
  NODEs: N03841$AtoD (IN1),
         N03889 (IN2) => N04324$DtoA (OUT1)  

DIGITAL Message ID#19 (SERIOUS):
PERSISTENT Hazard at time 10.1073us
  On D/A Node "N04324$DtoA"
  See Message ID#18 for probable cause.

DIGITAL Message ID#20 (SERIOUS):
PERSISTENT Hazard at time 10.1073us
  Device: On D/A interface X$N04324_DtoA1.N1, "N04324$DtoA"
  See Message ID#18 for probable cause.

DIGITAL Message ID#21 (SERIOUS):
PERSISTENT Hazard at time 10.109us
  On D/A Node "N04324$DtoA"
  See Message ID#18 for probable cause.

DIGITAL Message ID#22 (WARNING):
AMBIGUITY CONVERGENCE Hazard at time 15.0011us
  Device: X_U5.U1
  NODEs: N03841$AtoD (IN1),
         N03889 (IN2) => N04324$DtoA (OUT1)  

DIGITAL Message ID#23 (SERIOUS):
PERSISTENT Hazard at time 15.0011us
  On D/A Node "N04324$DtoA"
  See Message ID#22 for probable cause.

DIGITAL Message ID#24 (SERIOUS):
PERSISTENT Hazard at time 15.0011us
  Device: On D/A interface X$N04324_DtoA1.N1, "N04324$DtoA"
  See Message ID#22 for probable cause.

DIGITAL Message ID#25 (WARNING):
AMBIGUITY CONVERGENCE Hazard at time 15.1073us
  Device: X_U5.U1
  NODEs: N03841$AtoD (IN1),
         N03889 (IN2) => N04324$DtoA (OUT1)  

DIGITAL Message ID#26 (SERIOUS):
PERSISTENT Hazard at time 15.1073us
  On D/A Node "N04324$DtoA"
  See Message ID#25 for probable cause.

DIGITAL Message ID#27 (SERIOUS):
PERSISTENT Hazard at time 15.1073us
  Device: On D/A interface X$N04324_DtoA1.N1, "N04324$DtoA"
  See Message ID#25 for probable cause.

DIGITAL Message ID#28 (SERIOUS):
PERSISTENT Hazard at time 15.109us
  On D/A Node "N04324$DtoA"
  See Message ID#25 for probable cause.

DIGITAL Message ID#29 (WARNING):
AMBIGUITY CONVERGENCE Hazard at time 20.0011us
  Device: X_U5.U1
  NODEs: N03841$AtoD (IN1),
         N03889 (IN2) => N04324$DtoA (OUT1)  

DIGITAL Message ID#30 (SERIOUS):
PERSISTENT Hazard at time 20.0011us
  On D/A Node "N04324$DtoA"
  See Message ID#29 for probable cause.

DIGITAL Message ID#31 (SERIOUS):
PERSISTENT Hazard at time 20.0011us
  Device: On D/A interface X$N04324_DtoA1.N1, "N04324$DtoA"
  See Message ID#29 for probable cause.

DIGITAL Message ID#32 (WARNING):
AMBIGUITY CONVERGENCE Hazard at time 20.1073us
  Device: X_U5.U1
  NODEs: N03841$AtoD (IN1),
         N03889 (IN2) => N04324$DtoA (OUT1)  

DIGITAL Message ID#33 (SERIOUS):
PERSISTENT Hazard at time 20.1073us
  On D/A Node "N04324$DtoA"
  See Message ID#32 for probable cause.

DIGITAL Message ID#34 (SERIOUS):
PERSISTENT Hazard at time 20.1073us
  Device: On D/A interface X$N04324_DtoA1.N1, "N04324$DtoA"
  See Message ID#32 for probable cause.

DIGITAL Message ID#35 (SERIOUS):
PERSISTENT Hazard at time 20.109us
  On D/A Node "N04324$DtoA"
  See Message ID#32 for probable cause.

DIGITAL Message ID#36 (WARNING):
AMBIGUITY CONVERGENCE Hazard at time 25.0011us
  Device: X_U5.U1
  NODEs: N03841$AtoD (IN1),
         N03889 (IN2) => N04324$DtoA (OUT1)  

DIGITAL Message ID#37 (SERIOUS):
PERSISTENT Hazard at time 25.0011us
  On D/A Node "N04324$DtoA"
  See Message ID#36 for probable cause.

DIGITAL Message ID#38 (SERIOUS):
PERSISTENT Hazard at time 25.0011us
  Device: On D/A interface X$N04324_DtoA1.N1, "N04324$DtoA"
  See Message ID#36 for probable cause.

DIGITAL Message ID#39 (WARNING):
AMBIGUITY CONVERGENCE Hazard at time 25.1073us
  Device: X_U5.U1
  NODEs: N03841$AtoD (IN1),
         N03889 (IN2) => N04324$DtoA (OUT1)  

DIGITAL Message ID#40 (SERIOUS):
PERSISTENT Hazard at time 25.1073us
  On D/A Node "N04324$DtoA"
  See Message ID#39 for probable cause.

DIGITAL Message ID#41 (SERIOUS):
PERSISTENT Hazard at time 25.1073us
  Device: On D/A interface X$N04324_DtoA1.N1, "N04324$DtoA"
  See Message ID#39 for probable cause.

DIGITAL Message ID#42 (SERIOUS):
PERSISTENT Hazard at time 25.109us
  On D/A Node "N04324$DtoA"
  See Message ID#39 for probable cause.

DIGITAL Message ID#43 (WARNING):
AMBIGUITY CONVERGENCE Hazard at time 30.0011us
  Device: X_U5.U1
  NODEs: N03841$AtoD (IN1),
         N03889 (IN2) => N04324$DtoA (OUT1)  

DIGITAL Message ID#44 (SERIOUS):
PERSISTENT Hazard at time 30.0011us
  On D/A Node "N04324$DtoA"
  See Message ID#43 for probable cause.

DIGITAL Message ID#45 (SERIOUS):
PERSISTENT Hazard at time 30.0011us
  Device: On D/A interface X$N04324_DtoA1.N1, "N04324$DtoA"
  See Message ID#43 for probable cause.

DIGITAL Message ID#46 (WARNING):
AMBIGUITY CONVERGENCE Hazard at time 30.1073us
  Device: X_U5.U1
  NODEs: N03841$AtoD (IN1),
         N03889 (IN2) => N04324$DtoA (OUT1)  

DIGITAL Message ID#47 (SERIOUS):
PERSISTENT Hazard at time 30.1073us
  On D/A Node "N04324$DtoA"
  See Message ID#46 for probable cause.

DIGITAL Message ID#48 (SERIOUS):
PERSISTENT Hazard at time 30.1073us
  Device: On D/A interface X$N04324_DtoA1.N1, "N04324$DtoA"
  See Message ID#46 for probable cause.

DIGITAL Message ID#49 (SERIOUS):
PERSISTENT Hazard at time 30.109us
  On D/A Node "N04324$DtoA"
  See Message ID#46 for probable cause.

DIGITAL Message ID#50 (WARNING):
AMBIGUITY CONVERGENCE Hazard at time 35.0011us
  Device: X_U5.U1
  NODEs: N03841$AtoD (IN1),
         N03889 (IN2) => N04324$DtoA (OUT1)  

DIGITAL Message ID#51 (SERIOUS):
PERSISTENT Hazard at time 35.0011us
  On D/A Node "N04324$DtoA"
  See Message ID#50 for probable cause.

DIGITAL Message ID#52 (SERIOUS):
PERSISTENT Hazard at time 35.0011us
  Device: On D/A interface X$N04324_DtoA1.N1, "N04324$DtoA"
  See Message ID#50 for probable cause.

DIGITAL Message ID#53 (WARNING):
AMBIGUITY CONVERGENCE Hazard at time 35.1073us
  Device: X_U5.U1
  NODEs: N03841$AtoD (IN1),
         N03889 (IN2) => N04324$DtoA (OUT1)  

DIGITAL Message ID#54 (SERIOUS):
PERSISTENT Hazard at time 35.1073us
  On D/A Node "N04324$DtoA"
  See Message ID#53 for probable cause.

DIGITAL Message ID#55 (SERIOUS):
PERSISTENT Hazard at time 35.1073us
  Device: On D/A interface X$N04324_DtoA1.N1, "N04324$DtoA"
  See Message ID#53 for probable cause.

DIGITAL Message ID#56 (SERIOUS):
PERSISTENT Hazard at time 35.109us
  On D/A Node "N04324$DtoA"
  See Message ID#53 for probable cause.

DIGITAL Message ID#57 (WARNING):
AMBIGUITY CONVERGENCE Hazard at time 40.0011us
  Device: X_U5.U1
  NODEs: N03841$AtoD (IN1),
         N03889 (IN2) => N04324$DtoA (OUT1)  

DIGITAL Message ID#58 (SERIOUS):
PERSISTENT Hazard at time 40.0011us
  On D/A Node "N04324$DtoA"
  See Message ID#57 for probable cause.

DIGITAL Message ID#59 (SERIOUS):
PERSISTENT Hazard at time 40.0011us
  Device: On D/A interface X$N04324_DtoA1.N1, "N04324$DtoA"
  See Message ID#57 for probable cause.

DIGITAL Message ID#60 (WARNING):
AMBIGUITY CONVERGENCE Hazard at time 40.1073us
  Device: X_U5.U1
  NODEs: N03841$AtoD (IN1),
         N03889 (IN2) => N04324$DtoA (OUT1)  

DIGITAL Message ID#61 (SERIOUS):
PERSISTENT Hazard at time 40.1073us
  On D/A Node "N04324$DtoA"
  See Message ID#60 for probable cause.

DIGITAL Message ID#62 (SERIOUS):
PERSISTENT Hazard at time 40.1073us
  Device: On D/A interface X$N04324_DtoA1.N1, "N04324$DtoA"
  See Message ID#60 for probable cause.

DIGITAL Message ID#63 (SERIOUS):
PERSISTENT Hazard at time 40.109us
  On D/A Node "N04324$DtoA"
  See Message ID#60 for probable cause.

DIGITAL Message ID#64 (WARNING):
AMBIGUITY CONVERGENCE Hazard at time 45.0011us
  Device: X_U5.U1
  NODEs: N03841$AtoD (IN1),
         N03889 (IN2) => N04324$DtoA (OUT1)  

DIGITAL Message ID#65 (SERIOUS):
PERSISTENT Hazard at time 45.0011us
  On D/A Node "N04324$DtoA"
  See Message ID#64 for probable cause.

DIGITAL Message ID#66 (SERIOUS):
PERSISTENT Hazard at time 45.0011us
  Device: On D/A interface X$N04324_DtoA1.N1, "N04324$DtoA"
  See Message ID#64 for probable cause.

DIGITAL Message ID#67 (WARNING):
AMBIGUITY CONVERGENCE Hazard at time 45.1073us
  Device: X_U5.U1
  NODEs: N03841$AtoD (IN1),
         N03889 (IN2) => N04324$DtoA (OUT1)  

DIGITAL Message ID#68 (SERIOUS):
PERSISTENT Hazard at time 45.1073us
  On D/A Node "N04324$DtoA"
  See Message ID#67 for probable cause.

DIGITAL Message ID#69 (SERIOUS):
PERSISTENT Hazard at time 45.1073us
  Device: On D/A interface X$N04324_DtoA1.N1, "N04324$DtoA"
  See Message ID#67 for probable cause.

DIGITAL Message ID#70 (SERIOUS):
PERSISTENT Hazard at time 45.109us
  On D/A Node "N04324$DtoA"
  See Message ID#67 for probable cause.

DIGITAL Message ID#71 (WARNING):
AMBIGUITY CONVERGENCE Hazard at time 50.0011us
  Device: X_U5.U1
  NODEs: N03841$AtoD (IN1),
         N03889 (IN2) => N04324$DtoA (OUT1)  

DIGITAL Message ID#72 (SERIOUS):
PERSISTENT Hazard at time 50.0011us
  On D/A Node "N04324$DtoA"
  See Message ID#71 for probable cause.

DIGITAL Message ID#73 (SERIOUS):
PERSISTENT Hazard at time 50.0011us
  Device: On D/A interface X$N04324_DtoA1.N1, "N04324$DtoA"
  See Message ID#71 for probable cause.

DIGITAL Message ID#74 (WARNING):
AMBIGUITY CONVERGENCE Hazard at time 50.1073us
  Device: X_U5.U1
  NODEs: N03841$AtoD (IN1),
         N03889 (IN2) => N04324$DtoA (OUT1)  

DIGITAL Message ID#75 (SERIOUS):
PERSISTENT Hazard at time 50.1073us
  On D/A Node "N04324$DtoA"
  See Message ID#74 for probable cause.

DIGITAL Message ID#76 (SERIOUS):
PERSISTENT Hazard at time 50.1073us
  Device: On D/A interface X$N04324_DtoA1.N1, "N04324$DtoA"
  See Message ID#74 for probable cause.

DIGITAL Message ID#77 (SERIOUS):
PERSISTENT Hazard at time 50.109us
  On D/A Node "N04324$DtoA"
  See Message ID#74 for probable cause.

DIGITAL Message ID#78 (WARNING):
AMBIGUITY CONVERGENCE Hazard at time 55.0011us
  Device: X_U5.U1
  NODEs: N03841$AtoD (IN1),
         N03889 (IN2) => N04324$DtoA (OUT1)  

DIGITAL Message ID#79 (SERIOUS):
PERSISTENT Hazard at time 55.0011us
  On D/A Node "N04324$DtoA"
  See Message ID#78 for probable cause.

DIGITAL Message ID#80 (SERIOUS):
PERSISTENT Hazard at time 55.0011us
  Device: On D/A interface X$N04324_DtoA1.N1, "N04324$DtoA"
  See Message ID#78 for probable cause.

DIGITAL Message ID#81 (WARNING):
AMBIGUITY CONVERGENCE Hazard at time 55.1073us
  Device: X_U5.U1
  NODEs: N03841$AtoD (IN1),
         N03889 (IN2) => N04324$DtoA (OUT1)  

DIGITAL Message ID#82 (SERIOUS):
PERSISTENT Hazard at time 55.1073us
  On D/A Node "N04324$DtoA"
  See Message ID#81 for probable cause.

DIGITAL Message ID#83 (SERIOUS):
PERSISTENT Hazard at time 55.1073us
  Device: On D/A interface X$N04324_DtoA1.N1, "N04324$DtoA"
  See Message ID#81 for probable cause.

DIGITAL Message ID#84 (SERIOUS):
PERSISTENT Hazard at time 55.109us
  On D/A Node "N04324$DtoA"
  See Message ID#81 for probable cause.

DIGITAL Message ID#85 (WARNING):
AMBIGUITY CONVERGENCE Hazard at time 60.0011us
  Device: X_U5.U1
  NODEs: N03841$AtoD (IN1),
         N03889 (IN2) => N04324$DtoA (OUT1)  

DIGITAL Message ID#86 (SERIOUS):
PERSISTENT Hazard at time 60.0011us
  On D/A Node "N04324$DtoA"
  See Message ID#85 for probable cause.

DIGITAL Message ID#87 (SERIOUS):
PERSISTENT Hazard at time 60.0011us
  Device: On D/A interface X$N04324_DtoA1.N1, "N04324$DtoA"
  See Message ID#85 for probable cause.

DIGITAL Message ID#88 (WARNING):
AMBIGUITY CONVERGENCE Hazard at time 60.1073us
  Device: X_U5.U1
  NODEs: N03841$AtoD (IN1),
         N03889 (IN2) => N04324$DtoA (OUT1)  

DIGITAL Message ID#89 (SERIOUS):
PERSISTENT Hazard at time 60.1073us
  On D/A Node "N04324$DtoA"
  See Message ID#88 for probable cause.

DIGITAL Message ID#90 (SERIOUS):
PERSISTENT Hazard at time 60.1073us
  Device: On D/A interface X$N04324_DtoA1.N1, "N04324$DtoA"
  See Message ID#88 for probable cause.

DIGITAL Message ID#91 (SERIOUS):
PERSISTENT Hazard at time 60.109us
  On D/A Node "N04324$DtoA"
  See Message ID#88 for probable cause.

DIGITAL Message ID#92 (WARNING):
AMBIGUITY CONVERGENCE Hazard at time 65.0011us
  Device: X_U5.U1
  NODEs: N03841$AtoD (IN1),
         N03889 (IN2) => N04324$DtoA (OUT1)  

DIGITAL Message ID#93 (SERIOUS):
PERSISTENT Hazard at time 65.0011us
  On D/A Node "N04324$DtoA"
  See Message ID#92 for probable cause.

DIGITAL Message ID#94 (SERIOUS):
PERSISTENT Hazard at time 65.0011us
  Device: On D/A interface X$N04324_DtoA1.N1, "N04324$DtoA"
  See Message ID#92 for probable cause.

DIGITAL Message ID#95 (WARNING):
AMBIGUITY CONVERGENCE Hazard at time 65.1073us
  Device: X_U5.U1
  NODEs: N03841$AtoD (IN1),
         N03889 (IN2) => N04324$DtoA (OUT1)  

DIGITAL Message ID#96 (SERIOUS):
PERSISTENT Hazard at time 65.1073us
  On D/A Node "N04324$DtoA"
  See Message ID#95 for probable cause.

DIGITAL Message ID#97 (SERIOUS):
PERSISTENT Hazard at time 65.1073us
  Device: On D/A interface X$N04324_DtoA1.N1, "N04324$DtoA"
  See Message ID#95 for probable cause.

DIGITAL Message ID#98 (SERIOUS):
PERSISTENT Hazard at time 65.109us
  On D/A Node "N04324$DtoA"
  See Message ID#95 for probable cause.

DIGITAL Message ID#99 (WARNING):
AMBIGUITY CONVERGENCE Hazard at time 70.0011us
  Device: X_U5.U1
  NODEs: N03841$AtoD (IN1),
         N03889 (IN2) => N04324$DtoA (OUT1)  

DIGITAL Message ID#100 (SERIOUS):
PERSISTENT Hazard at time 70.0011us
  On D/A Node "N04324$DtoA"
  See Message ID#99 for probable cause.

DIGITAL Message ID#101 (SERIOUS):
PERSISTENT Hazard at time 70.0011us
  Device: On D/A interface X$N04324_DtoA1.N1, "N04324$DtoA"
  See Message ID#99 for probable cause.

DIGITAL Message ID#102 (WARNING):
AMBIGUITY CONVERGENCE Hazard at time 75.0011us
  Device: X_U5.U1
  NODEs: N03841$AtoD (IN1),
         N03889 (IN2) => N04324$DtoA (OUT1)  

DIGITAL Message ID#103 (SERIOUS):
PERSISTENT Hazard at time 75.0011us
  On D/A Node "N04324$DtoA"
  See Message ID#102 for probable cause.

DIGITAL Message ID#104 (SERIOUS):
PERSISTENT Hazard at time 75.0011us
  Device: On D/A interface X$N04324_DtoA1.N1, "N04324$DtoA"
  See Message ID#102 for probable cause.

DIGITAL Message ID#105 (WARNING):
AMBIGUITY CONVERGENCE Hazard at time 80.0011us
  Device: X_U5.U1
  NODEs: N03841$AtoD (IN1),
         N03889 (IN2) => N04324$DtoA (OUT1)  

DIGITAL Message ID#106 (SERIOUS):
PERSISTENT Hazard at time 80.0011us
  On D/A Node "N04324$DtoA"
  See Message ID#105 for probable cause.

DIGITAL Message ID#107 (SERIOUS):
PERSISTENT Hazard at time 80.0011us
  Device: On D/A interface X$N04324_DtoA1.N1, "N04324$DtoA"
  See Message ID#105 for probable cause.

DIGITAL Message ID#108 (WARNING):
AMBIGUITY CONVERGENCE Hazard at time 85.0011us
  Device: X_U5.U1
  NODEs: N03841$AtoD (IN1),
         N03889 (IN2) => N04324$DtoA (OUT1)  

DIGITAL Message ID#109 (SERIOUS):
PERSISTENT Hazard at time 85.0011us
  On D/A Node "N04324$DtoA"
  See Message ID#108 for probable cause.

DIGITAL Message ID#110 (SERIOUS):
PERSISTENT Hazard at time 85.0011us
  Device: On D/A interface X$N04324_DtoA1.N1, "N04324$DtoA"
  See Message ID#108 for probable cause.

DIGITAL Message ID#111 (WARNING):
AMBIGUITY CONVERGENCE Hazard at time 90.0011us
  Device: X_U5.U1
  NODEs: N03841$AtoD (IN1),
         N03889 (IN2) => N04324$DtoA (OUT1)  

DIGITAL Message ID#112 (SERIOUS):
PERSISTENT Hazard at time 90.0011us
  On D/A Node "N04324$DtoA"
  See Message ID#111 for probable cause.

DIGITAL Message ID#113 (SERIOUS):
PERSISTENT Hazard at time 90.0011us
  Device: On D/A interface X$N04324_DtoA1.N1, "N04324$DtoA"
  See Message ID#111 for probable cause.

DIGITAL Message ID#114 (WARNING):
AMBIGUITY CONVERGENCE Hazard at time 95.0011us
  Device: X_U5.U1
  NODEs: N03841$AtoD (IN1),
         N03889 (IN2) => N04324$DtoA (OUT1)  

DIGITAL Message ID#115 (SERIOUS):
PERSISTENT Hazard at time 95.0011us
  On D/A Node "N04324$DtoA"
  See Message ID#114 for probable cause.

DIGITAL Message ID#116 (SERIOUS):
PERSISTENT Hazard at time 95.0011us
  Device: On D/A interface X$N04324_DtoA1.N1, "N04324$DtoA"
  See Message ID#114 for probable cause.

DIGITAL Message ID#117 (WARNING):
AMBIGUITY CONVERGENCE Hazard at time 100.0011us
  Device: X_U5.U1
  NODEs: N03841$AtoD (IN1),
         N03889 (IN2) => N04324$DtoA (OUT1)  

DIGITAL Message ID#118 (SERIOUS):
PERSISTENT Hazard at time 100.0011us
  On D/A Node "N04324$DtoA"
  See Message ID#117 for probable cause.

DIGITAL Message ID#119 (SERIOUS):
PERSISTENT Hazard at time 100.0011us
  Device: On D/A interface X$N04324_DtoA1.N1, "N04324$DtoA"
  See Message ID#117 for probable cause.

DIGITAL Message ID#120 (WARNING):
AMBIGUITY CONVERGENCE Hazard at time 105.0011us
  Device: X_U5.U1
  NODEs: N03841$AtoD (IN1),
         N03889 (IN2) => N04324$DtoA (OUT1)  

DIGITAL Message ID#121 (SERIOUS):
PERSISTENT Hazard at time 105.0011us
  On D/A Node "N04324$DtoA"
  See Message ID#120 for probable cause.

DIGITAL Message ID#122 (SERIOUS):
PERSISTENT Hazard at time 105.0011us
  Device: On D/A interface X$N04324_DtoA1.N1, "N04324$DtoA"
  See Message ID#120 for probable cause.

DIGITAL Message ID#123 (WARNING):
AMBIGUITY CONVERGENCE Hazard at time 110.0011us
  Device: X_U5.U1
  NODEs: N03841$AtoD (IN1),
         N03889 (IN2) => N04324$DtoA (OUT1)  

DIGITAL Message ID#124 (SERIOUS):
PERSISTENT Hazard at time 110.0011us
  On D/A Node "N04324$DtoA"
  See Message ID#123 for probable cause.

DIGITAL Message ID#125 (SERIOUS):
PERSISTENT Hazard at time 110.0011us
  Device: On D/A interface X$N04324_DtoA1.N1, "N04324$DtoA"
  See Message ID#123 for probable cause.

DIGITAL Message ID#126 (WARNING):
AMBIGUITY CONVERGENCE Hazard at time 115.0011us
  Device: X_U5.U1
  NODEs: N03841$AtoD (IN1),
         N03889 (IN2) => N04324$DtoA (OUT1)  

DIGITAL Message ID#127 (SERIOUS):
PERSISTENT Hazard at time 115.0011us
  On D/A Node "N04324$DtoA"
  See Message ID#126 for probable cause.

DIGITAL Message ID#128 (SERIOUS):
PERSISTENT Hazard at time 115.0011us
  Device: On D/A interface X$N04324_DtoA1.N1, "N04324$DtoA"
  See Message ID#126 for probable cause.

DIGITAL Message ID#129 (WARNING):
AMBIGUITY CONVERGENCE Hazard at time 120.0011us
  Device: X_U5.U1
  NODEs: N03841$AtoD (IN1),
         N03889 (IN2) => N04324$DtoA (OUT1)  

DIGITAL Message ID#130 (SERIOUS):
PERSISTENT Hazard at time 120.0011us
  On D/A Node "N04324$DtoA"
  See Message ID#129 for probable cause.

DIGITAL Message ID#131 (SERIOUS):
PERSISTENT Hazard at time 120.0011us
  Device: On D/A interface X$N04324_DtoA1.N1, "N04324$DtoA"
  See Message ID#129 for probable cause.

DIGITAL Message ID#132 (WARNING):
AMBIGUITY CONVERGENCE Hazard at time 125.0011us
  Device: X_U5.U1
  NODEs: N03841$AtoD (IN1),
         N03889 (IN2) => N04324$DtoA (OUT1)  

DIGITAL Message ID#133 (SERIOUS):
PERSISTENT Hazard at time 125.0011us
  On D/A Node "N04324$DtoA"
  See Message ID#132 for probable cause.

DIGITAL Message ID#134 (SERIOUS):
PERSISTENT Hazard at time 125.0011us
  Device: On D/A interface X$N04324_DtoA1.N1, "N04324$DtoA"
  See Message ID#132 for probable cause.

DIGITAL Message ID#135 (WARNING):
AMBIGUITY CONVERGENCE Hazard at time 130.0011us
  Device: X_U5.U1
  NODEs: N03841$AtoD (IN1),
         N03889 (IN2) => N04324$DtoA (OUT1)  

DIGITAL Message ID#136 (SERIOUS):
PERSISTENT Hazard at time 130.0011us
  On D/A Node "N04324$DtoA"
  See Message ID#135 for probable cause.

DIGITAL Message ID#137 (SERIOUS):
PERSISTENT Hazard at time 130.0011us
  Device: On D/A interface X$N04324_DtoA1.N1, "N04324$DtoA"
  See Message ID#135 for probable cause.

DIGITAL Message ID#138 (WARNING):
AMBIGUITY CONVERGENCE Hazard at time 135.0011us
  Device: X_U5.U1
  NODEs: N03841$AtoD (IN1),
         N03889 (IN2) => N04324$DtoA (OUT1)  

DIGITAL Message ID#139 (SERIOUS):
PERSISTENT Hazard at time 135.0011us
  On D/A Node "N04324$DtoA"
  See Message ID#138 for probable cause.

DIGITAL Message ID#140 (SERIOUS):
PERSISTENT Hazard at time 135.0011us
  Device: On D/A interface X$N04324_DtoA1.N1, "N04324$DtoA"
  See Message ID#138 for probable cause.

DIGITAL Message ID#141 (WARNING):
AMBIGUITY CONVERGENCE Hazard at time 140.0011us
  Device: X_U5.U1
  NODEs: N03841$AtoD (IN1),
         N03889 (IN2) => N04324$DtoA (OUT1)  

DIGITAL Message ID#142 (SERIOUS):
PERSISTENT Hazard at time 140.0011us
  On D/A Node "N04324$DtoA"
  See Message ID#141 for probable cause.

DIGITAL Message ID#143 (SERIOUS):
PERSISTENT Hazard at time 140.0011us
  Device: On D/A interface X$N04324_DtoA1.N1, "N04324$DtoA"
  See Message ID#141 for probable cause.

DIGITAL Message ID#144 (WARNING):
AMBIGUITY CONVERGENCE Hazard at time 145.0011us
  Device: X_U5.U1
  NODEs: N03841$AtoD (IN1),
         N03889 (IN2) => N04324$DtoA (OUT1)  

DIGITAL Message ID#145 (SERIOUS):
PERSISTENT Hazard at time 145.0011us
  On D/A Node "N04324$DtoA"
  See Message ID#144 for probable cause.

DIGITAL Message ID#146 (SERIOUS):
PERSISTENT Hazard at time 145.0011us
  Device: On D/A interface X$N04324_DtoA1.N1, "N04324$DtoA"
  See Message ID#144 for probable cause.

DIGITAL Message ID#147 (WARNING):
AMBIGUITY CONVERGENCE Hazard at time 150.0011us
  Device: X_U5.U1
  NODEs: N03841$AtoD (IN1),
         N03889 (IN2) => N04324$DtoA (OUT1)  

DIGITAL Message ID#148 (SERIOUS):
PERSISTENT Hazard at time 150.0011us
  On D/A Node "N04324$DtoA"
  See Message ID#147 for probable cause.

DIGITAL Message ID#149 (SERIOUS):
PERSISTENT Hazard at time 150.0011us
  Device: On D/A interface X$N04324_DtoA1.N1, "N04324$DtoA"
  See Message ID#147 for probable cause.

DIGITAL Message ID#150 (WARNING):
AMBIGUITY CONVERGENCE Hazard at time 155.0011us
  Device: X_U5.U1
  NODEs: N03841$AtoD (IN1),
         N03889 (IN2) => N04324$DtoA (OUT1)  

DIGITAL Message ID#151 (SERIOUS):
PERSISTENT Hazard at time 155.0011us
  On D/A Node "N04324$DtoA"
  See Message ID#150 for probable cause.

DIGITAL Message ID#152 (SERIOUS):
PERSISTENT Hazard at time 155.0011us
  Device: On D/A interface X$N04324_DtoA1.N1, "N04324$DtoA"
  See Message ID#150 for probable cause.

DIGITAL Message ID#153 (WARNING):
AMBIGUITY CONVERGENCE Hazard at time 160.0011us
  Device: X_U5.U1
  NODEs: N03841$AtoD (IN1),
         N03889 (IN2) => N04324$DtoA (OUT1)  

DIGITAL Message ID#154 (SERIOUS):
PERSISTENT Hazard at time 160.0011us
  On D/A Node "N04324$DtoA"
  See Message ID#153 for probable cause.

DIGITAL Message ID#155 (SERIOUS):
PERSISTENT Hazard at time 160.0011us
  Device: On D/A interface X$N04324_DtoA1.N1, "N04324$DtoA"
  See Message ID#153 for probable cause.

DIGITAL Message ID#156 (WARNING):
AMBIGUITY CONVERGENCE Hazard at time 165.0011us
  Device: X_U5.U1
  NODEs: N03841$AtoD (IN1),
         N03889 (IN2) => N04324$DtoA (OUT1)  

DIGITAL Message ID#157 (SERIOUS):
PERSISTENT Hazard at time 165.0011us
  On D/A Node "N04324$DtoA"
  See Message ID#156 for probable cause.

DIGITAL Message ID#158 (SERIOUS):
PERSISTENT Hazard at time 165.0011us
  Device: On D/A interface X$N04324_DtoA1.N1, "N04324$DtoA"
  See Message ID#156 for probable cause.

DIGITAL Message ID#159 (WARNING):
AMBIGUITY CONVERGENCE Hazard at time 170.0011us
  Device: X_U5.U1
  NODEs: N03841$AtoD (IN1),
         N03889 (IN2) => N04324$DtoA (OUT1)  

DIGITAL Message ID#160 (SERIOUS):
PERSISTENT Hazard at time 170.0011us
  On D/A Node "N04324$DtoA"
  See Message ID#159 for probable cause.

DIGITAL Message ID#161 (SERIOUS):
PERSISTENT Hazard at time 170.0011us
  Device: On D/A interface X$N04324_DtoA1.N1, "N04324$DtoA"
  See Message ID#159 for probable cause.

DIGITAL Message ID#162 (WARNING):
AMBIGUITY CONVERGENCE Hazard at time 175.0011us
  Device: X_U5.U1
  NODEs: N03841$AtoD (IN1),
         N03889 (IN2) => N04324$DtoA (OUT1)  

DIGITAL Message ID#163 (SERIOUS):
PERSISTENT Hazard at time 175.0011us
  On D/A Node "N04324$DtoA"
  See Message ID#162 for probable cause.

DIGITAL Message ID#164 (SERIOUS):
PERSISTENT Hazard at time 175.0011us
  Device: On D/A interface X$N04324_DtoA1.N1, "N04324$DtoA"
  See Message ID#162 for probable cause.

DIGITAL Message ID#165 (WARNING):
AMBIGUITY CONVERGENCE Hazard at time 180.0011us
  Device: X_U5.U1
  NODEs: N03841$AtoD (IN1),
         N03889 (IN2) => N04324$DtoA (OUT1)  

DIGITAL Message ID#166 (SERIOUS):
PERSISTENT Hazard at time 180.0011us
  On D/A Node "N04324$DtoA"
  See Message ID#165 for probable cause.

DIGITAL Message ID#167 (SERIOUS):
PERSISTENT Hazard at time 180.0011us
  Device: On D/A interface X$N04324_DtoA1.N1, "N04324$DtoA"
  See Message ID#165 for probable cause.

DIGITAL Message ID#168 (WARNING):
AMBIGUITY CONVERGENCE Hazard at time 185.0011us
  Device: X_U5.U1
  NODEs: N03841$AtoD (IN1),
         N03889 (IN2) => N04324$DtoA (OUT1)  

DIGITAL Message ID#169 (SERIOUS):
PERSISTENT Hazard at time 185.0011us
  On D/A Node "N04324$DtoA"
  See Message ID#168 for probable cause.

DIGITAL Message ID#170 (SERIOUS):
PERSISTENT Hazard at time 185.0011us
  Device: On D/A interface X$N04324_DtoA1.N1, "N04324$DtoA"
  See Message ID#168 for probable cause.

DIGITAL Message ID#171 (WARNING):
AMBIGUITY CONVERGENCE Hazard at time 190.0011us
  Device: X_U5.U1
  NODEs: N03841$AtoD (IN1),
         N03889 (IN2) => N04324$DtoA (OUT1)  

DIGITAL Message ID#172 (SERIOUS):
PERSISTENT Hazard at time 190.0011us
  On D/A Node "N04324$DtoA"
  See Message ID#171 for probable cause.

DIGITAL Message ID#173 (SERIOUS):
PERSISTENT Hazard at time 190.0011us
  Device: On D/A interface X$N04324_DtoA1.N1, "N04324$DtoA"
  See Message ID#171 for probable cause.

DIGITAL Message ID#174 (WARNING):
AMBIGUITY CONVERGENCE Hazard at time 195.0011us
  Device: X_U5.U1
  NODEs: N03841$AtoD (IN1),
         N03889 (IN2) => N04324$DtoA (OUT1)  

DIGITAL Message ID#175 (SERIOUS):
PERSISTENT Hazard at time 195.0011us
  On D/A Node "N04324$DtoA"
  See Message ID#174 for probable cause.

DIGITAL Message ID#176 (SERIOUS):
PERSISTENT Hazard at time 195.0011us
  Device: On D/A interface X$N04324_DtoA1.N1, "N04324$DtoA"
  See Message ID#174 for probable cause.

DIGITAL Message ID#177 (WARNING):
AMBIGUITY CONVERGENCE Hazard at time 200.0011us
  Device: X_U5.U1
  NODEs: N03841$AtoD (IN1),
         N03889 (IN2) => N04324$DtoA (OUT1)  

DIGITAL Message ID#178 (SERIOUS):
PERSISTENT Hazard at time 200.0011us
  On D/A Node "N04324$DtoA"
  See Message ID#177 for probable cause.

DIGITAL Message ID#179 (SERIOUS):
PERSISTENT Hazard at time 200.0011us
  Device: On D/A interface X$N04324_DtoA1.N1, "N04324$DtoA"
  See Message ID#177 for probable cause.

DIGITAL Message ID#180 (WARNING):
AMBIGUITY CONVERGENCE Hazard at time 205.0011us
  Device: X_U5.U1
  NODEs: N03841$AtoD (IN1),
         N03889 (IN2) => N04324$DtoA (OUT1)  

DIGITAL Message ID#181 (SERIOUS):
PERSISTENT Hazard at time 205.0011us
  On D/A Node "N04324$DtoA"
  See Message ID#180 for probable cause.

DIGITAL Message ID#182 (SERIOUS):
PERSISTENT Hazard at time 205.0011us
  Device: On D/A interface X$N04324_DtoA1.N1, "N04324$DtoA"
  See Message ID#180 for probable cause.

DIGITAL Message ID#183 (WARNING):
AMBIGUITY CONVERGENCE Hazard at time 210.0011us
  Device: X_U5.U1
  NODEs: N03841$AtoD (IN1),
         N03889 (IN2) => N04324$DtoA (OUT1)  

DIGITAL Message ID#184 (SERIOUS):
PERSISTENT Hazard at time 210.0011us
  On D/A Node "N04324$DtoA"
  See Message ID#183 for probable cause.

DIGITAL Message ID#185 (SERIOUS):
PERSISTENT Hazard at time 210.0011us
  Device: On D/A interface X$N04324_DtoA1.N1, "N04324$DtoA"
  See Message ID#183 for probable cause.

DIGITAL Message ID#186 (WARNING):
AMBIGUITY CONVERGENCE Hazard at time 215.0011us
  Device: X_U5.U1
  NODEs: N03841$AtoD (IN1),
         N03889 (IN2) => N04324$DtoA (OUT1)  

DIGITAL Message ID#187 (SERIOUS):
PERSISTENT Hazard at time 215.0011us
  On D/A Node "N04324$DtoA"
  See Message ID#186 for probable cause.

DIGITAL Message ID#188 (SERIOUS):
PERSISTENT Hazard at time 215.0011us
  Device: On D/A interface X$N04324_DtoA1.N1, "N04324$DtoA"
  See Message ID#186 for probable cause.

DIGITAL Message ID#189 (WARNING):
AMBIGUITY CONVERGENCE Hazard at time 220.0011us
  Device: X_U5.U1
  NODEs: N03841$AtoD (IN1),
         N03889 (IN2) => N04324$DtoA (OUT1)  

DIGITAL Message ID#190 (SERIOUS):
PERSISTENT Hazard at time 220.0011us
  On D/A Node "N04324$DtoA"
  See Message ID#189 for probable cause.

DIGITAL Message ID#191 (SERIOUS):
PERSISTENT Hazard at time 220.0011us
  Device: On D/A interface X$N04324_DtoA1.N1, "N04324$DtoA"
  See Message ID#189 for probable cause.

DIGITAL Message ID#192 (WARNING):
AMBIGUITY CONVERGENCE Hazard at time 225.0011us
  Device: X_U5.U1
  NODEs: N03841$AtoD (IN1),
         N03889 (IN2) => N04324$DtoA (OUT1)  

DIGITAL Message ID#193 (SERIOUS):
PERSISTENT Hazard at time 225.0011us
  On D/A Node "N04324$DtoA"
  See Message ID#192 for probable cause.

DIGITAL Message ID#194 (SERIOUS):
PERSISTENT Hazard at time 225.0011us
  Device: On D/A interface X$N04324_DtoA1.N1, "N04324$DtoA"
  See Message ID#192 for probable cause.

DIGITAL Message ID#195 (WARNING):
AMBIGUITY CONVERGENCE Hazard at time 230.0011us
  Device: X_U5.U1
  NODEs: N03841$AtoD (IN1),
         N03889 (IN2) => N04324$DtoA (OUT1)  

DIGITAL Message ID#196 (SERIOUS):
PERSISTENT Hazard at time 230.0011us
  On D/A Node "N04324$DtoA"
  See Message ID#195 for probable cause.

DIGITAL Message ID#197 (SERIOUS):
PERSISTENT Hazard at time 230.0011us
  Device: On D/A interface X$N04324_DtoA1.N1, "N04324$DtoA"
  See Message ID#195 for probable cause.

DIGITAL Message ID#198 (WARNING):
AMBIGUITY CONVERGENCE Hazard at time 235.0011us
  Device: X_U5.U1
  NODEs: N03841$AtoD (IN1),
         N03889 (IN2) => N04324$DtoA (OUT1)  

DIGITAL Message ID#199 (SERIOUS):
PERSISTENT Hazard at time 235.0011us
  On D/A Node "N04324$DtoA"
  See Message ID#198 for probable cause.

DIGITAL Message ID#200 (SERIOUS):
PERSISTENT Hazard at time 235.0011us
  Device: On D/A interface X$N04324_DtoA1.N1, "N04324$DtoA"
  See Message ID#198 for probable cause.

DIGITAL Message ID#201 (WARNING):
AMBIGUITY CONVERGENCE Hazard at time 240.0011us
  Device: X_U5.U1
  NODEs: N03841$AtoD (IN1),
         N03889 (IN2) => N04324$DtoA (OUT1)  

DIGITAL Message ID#202 (SERIOUS):
PERSISTENT Hazard at time 240.0011us
  On D/A Node "N04324$DtoA"
  See Message ID#201 for probable cause.

DIGITAL Message ID#203 (SERIOUS):
PERSISTENT Hazard at time 240.0011us
  Device: On D/A interface X$N04324_DtoA1.N1, "N04324$DtoA"
  See Message ID#201 for probable cause.

DIGITAL Message ID#204 (WARNING):
AMBIGUITY CONVERGENCE Hazard at time 245.0011us
  Device: X_U5.U1
  NODEs: N03841$AtoD (IN1),
         N03889 (IN2) => N04324$DtoA (OUT1)  

DIGITAL Message ID#205 (SERIOUS):
PERSISTENT Hazard at time 245.0011us
  On D/A Node "N04324$DtoA"
  See Message ID#204 for probable cause.

DIGITAL Message ID#206 (SERIOUS):
PERSISTENT Hazard at time 245.0011us
  Device: On D/A interface X$N04324_DtoA1.N1, "N04324$DtoA"
  See Message ID#204 for probable cause.

DIGITAL Message ID#207 (WARNING):
AMBIGUITY CONVERGENCE Hazard at time 250.0011us
  Device: X_U5.U1
  NODEs: N03841$AtoD (IN1),
         N03889 (IN2) => N04324$DtoA (OUT1)  

DIGITAL Message ID#208 (SERIOUS):
PERSISTENT Hazard at time 250.0011us
  On D/A Node "N04324$DtoA"
  See Message ID#207 for probable cause.

DIGITAL Message ID#209 (SERIOUS):
PERSISTENT Hazard at time 250.0011us
  Device: On D/A interface X$N04324_DtoA1.N1, "N04324$DtoA"
  See Message ID#207 for probable cause.

DIGITAL Message ID#210 (WARNING):
AMBIGUITY CONVERGENCE Hazard at time 255.0011us
  Device: X_U5.U1
  NODEs: N03841$AtoD (IN1),
         N03889 (IN2) => N04324$DtoA (OUT1)  

DIGITAL Message ID#211 (SERIOUS):
PERSISTENT Hazard at time 255.0011us
  On D/A Node "N04324$DtoA"
  See Message ID#210 for probable cause.

DIGITAL Message ID#212 (SERIOUS):
PERSISTENT Hazard at time 255.0011us
  Device: On D/A interface X$N04324_DtoA1.N1, "N04324$DtoA"
  See Message ID#210 for probable cause.

DIGITAL Message ID#213 (WARNING):
AMBIGUITY CONVERGENCE Hazard at time 260.0011us
  Device: X_U5.U1
  NODEs: N03841$AtoD (IN1),
         N03889 (IN2) => N04324$DtoA (OUT1)  

DIGITAL Message ID#214 (SERIOUS):
PERSISTENT Hazard at time 260.0011us
  On D/A Node "N04324$DtoA"
  See Message ID#213 for probable cause.

DIGITAL Message ID#215 (SERIOUS):
PERSISTENT Hazard at time 260.0011us
  Device: On D/A interface X$N04324_DtoA1.N1, "N04324$DtoA"
  See Message ID#213 for probable cause.

DIGITAL Message ID#216 (WARNING):
AMBIGUITY CONVERGENCE Hazard at time 265.0011us
  Device: X_U5.U1
  NODEs: N03841$AtoD (IN1),
         N03889 (IN2) => N04324$DtoA (OUT1)  

DIGITAL Message ID#217 (SERIOUS):
PERSISTENT Hazard at time 265.0011us
  On D/A Node "N04324$DtoA"
  See Message ID#216 for probable cause.

DIGITAL Message ID#218 (SERIOUS):
PERSISTENT Hazard at time 265.0011us
  Device: On D/A interface X$N04324_DtoA1.N1, "N04324$DtoA"
  See Message ID#216 for probable cause.

DIGITAL Message ID#219 (WARNING):
AMBIGUITY CONVERGENCE Hazard at time 270.0011us
  Device: X_U5.U1
  NODEs: N03841$AtoD (IN1),
         N03889 (IN2) => N04324$DtoA (OUT1)  

DIGITAL Message ID#220 (SERIOUS):
PERSISTENT Hazard at time 270.0011us
  On D/A Node "N04324$DtoA"
  See Message ID#219 for probable cause.

DIGITAL Message ID#221 (SERIOUS):
PERSISTENT Hazard at time 270.0011us
  Device: On D/A interface X$N04324_DtoA1.N1, "N04324$DtoA"
  See Message ID#219 for probable cause.

DIGITAL Message ID#222 (WARNING):
AMBIGUITY CONVERGENCE Hazard at time 275.0011us
  Device: X_U5.U1
  NODEs: N03841$AtoD (IN1),
         N03889 (IN2) => N04324$DtoA (OUT1)  

DIGITAL Message ID#223 (SERIOUS):
PERSISTENT Hazard at time 275.0011us
  On D/A Node "N04324$DtoA"
  See Message ID#222 for probable cause.

DIGITAL Message ID#224 (SERIOUS):
PERSISTENT Hazard at time 275.0011us
  Device: On D/A interface X$N04324_DtoA1.N1, "N04324$DtoA"
  See Message ID#222 for probable cause.

DIGITAL Message ID#225 (WARNING):
AMBIGUITY CONVERGENCE Hazard at time 280.0011us
  Device: X_U5.U1
  NODEs: N03841$AtoD (IN1),
         N03889 (IN2) => N04324$DtoA (OUT1)  

DIGITAL Message ID#226 (SERIOUS):
PERSISTENT Hazard at time 280.0011us
  On D/A Node "N04324$DtoA"
  See Message ID#225 for probable cause.

DIGITAL Message ID#227 (SERIOUS):
PERSISTENT Hazard at time 280.0011us
  Device: On D/A interface X$N04324_DtoA1.N1, "N04324$DtoA"
  See Message ID#225 for probable cause.

DIGITAL Message ID#228 (WARNING):
AMBIGUITY CONVERGENCE Hazard at time 285.0011us
  Device: X_U5.U1
  NODEs: N03841$AtoD (IN1),
         N03889 (IN2) => N04324$DtoA (OUT1)  

DIGITAL Message ID#229 (SERIOUS):
PERSISTENT Hazard at time 285.0011us
  On D/A Node "N04324$DtoA"
  See Message ID#228 for probable cause.

DIGITAL Message ID#230 (SERIOUS):
PERSISTENT Hazard at time 285.0011us
  Device: On D/A interface X$N04324_DtoA1.N1, "N04324$DtoA"
  See Message ID#228 for probable cause.

DIGITAL Message ID#231 (WARNING):
AMBIGUITY CONVERGENCE Hazard at time 290.0011us
  Device: X_U5.U1
  NODEs: N03841$AtoD (IN1),
         N03889 (IN2) => N04324$DtoA (OUT1)  

DIGITAL Message ID#232 (SERIOUS):
PERSISTENT Hazard at time 290.0011us
  On D/A Node "N04324$DtoA"
  See Message ID#231 for probable cause.

DIGITAL Message ID#233 (SERIOUS):
PERSISTENT Hazard at time 290.0011us
  Device: On D/A interface X$N04324_DtoA1.N1, "N04324$DtoA"
  See Message ID#231 for probable cause.

DIGITAL Message ID#234 (WARNING):
AMBIGUITY CONVERGENCE Hazard at time 295.0011us
  Device: X_U5.U1
  NODEs: N03841$AtoD (IN1),
         N03889 (IN2) => N04324$DtoA (OUT1)  

DIGITAL Message ID#235 (SERIOUS):
PERSISTENT Hazard at time 295.0011us
  On D/A Node "N04324$DtoA"
  See Message ID#234 for probable cause.

DIGITAL Message ID#236 (SERIOUS):
PERSISTENT Hazard at time 295.0011us
  Device: On D/A interface X$N04324_DtoA1.N1, "N04324$DtoA"
  See Message ID#234 for probable cause.

DIGITAL Message ID#237 (WARNING):
AMBIGUITY CONVERGENCE Hazard at time 300.0011us
  Device: X_U5.U1
  NODEs: N03841$AtoD (IN1),
         N03889 (IN2) => N04324$DtoA (OUT1)  

DIGITAL Message ID#238 (SERIOUS):
PERSISTENT Hazard at time 300.0011us
  On D/A Node "N04324$DtoA"
  See Message ID#237 for probable cause.

DIGITAL Message ID#239 (SERIOUS):
PERSISTENT Hazard at time 300.0011us
  Device: On D/A interface X$N04324_DtoA1.N1, "N04324$DtoA"
  See Message ID#237 for probable cause.

DIGITAL Message ID#240 (WARNING):
AMBIGUITY CONVERGENCE Hazard at time 305.0011us
  Device: X_U5.U1
  NODEs: N03841$AtoD (IN1),
         N03889 (IN2) => N04324$DtoA (OUT1)  

DIGITAL Message ID#241 (SERIOUS):
PERSISTENT Hazard at time 305.0011us
  On D/A Node "N04324$DtoA"
  See Message ID#240 for probable cause.

DIGITAL Message ID#242 (SERIOUS):
PERSISTENT Hazard at time 305.0011us
  Device: On D/A interface X$N04324_DtoA1.N1, "N04324$DtoA"
  See Message ID#240 for probable cause.

DIGITAL Message ID#243 (WARNING):
AMBIGUITY CONVERGENCE Hazard at time 310.0011us
  Device: X_U5.U1
  NODEs: N03841$AtoD (IN1),
         N03889 (IN2) => N04324$DtoA (OUT1)  

DIGITAL Message ID#244 (SERIOUS):
PERSISTENT Hazard at time 310.0011us
  On D/A Node "N04324$DtoA"
  See Message ID#243 for probable cause.

DIGITAL Message ID#245 (SERIOUS):
PERSISTENT Hazard at time 310.0011us
  Device: On D/A interface X$N04324_DtoA1.N1, "N04324$DtoA"
  See Message ID#243 for probable cause.

DIGITAL Message ID#246 (WARNING):
AMBIGUITY CONVERGENCE Hazard at time 315.0011us
  Device: X_U5.U1
  NODEs: N03841$AtoD (IN1),
         N03889 (IN2) => N04324$DtoA (OUT1)  

DIGITAL Message ID#247 (SERIOUS):
PERSISTENT Hazard at time 315.0011us
  On D/A Node "N04324$DtoA"
  See Message ID#246 for probable cause.

DIGITAL Message ID#248 (SERIOUS):
PERSISTENT Hazard at time 315.0011us
  Device: On D/A interface X$N04324_DtoA1.N1, "N04324$DtoA"
  See Message ID#246 for probable cause.

DIGITAL Message ID#249 (WARNING):
AMBIGUITY CONVERGENCE Hazard at time 320.0011us
  Device: X_U5.U1
  NODEs: N03841$AtoD (IN1),
         N03889 (IN2) => N04324$DtoA (OUT1)  

DIGITAL Message ID#250 (SERIOUS):
PERSISTENT Hazard at time 320.0011us
  On D/A Node "N04324$DtoA"
  See Message ID#249 for probable cause.

DIGITAL Message ID#251 (SERIOUS):
PERSISTENT Hazard at time 320.0011us
  Device: On D/A interface X$N04324_DtoA1.N1, "N04324$DtoA"
  See Message ID#249 for probable cause.

DIGITAL Message ID#252 (WARNING):
AMBIGUITY CONVERGENCE Hazard at time 325.0011us
  Device: X_U5.U1
  NODEs: N03841$AtoD (IN1),
         N03889 (IN2) => N04324$DtoA (OUT1)  

DIGITAL Message ID#253 (SERIOUS):
PERSISTENT Hazard at time 325.0011us
  On D/A Node "N04324$DtoA"
  See Message ID#252 for probable cause.

DIGITAL Message ID#254 (SERIOUS):
PERSISTENT Hazard at time 325.0011us
  Device: On D/A interface X$N04324_DtoA1.N1, "N04324$DtoA"
  See Message ID#252 for probable cause.

DIGITAL Message ID#255 (WARNING):
AMBIGUITY CONVERGENCE Hazard at time 330.0011us
  Device: X_U5.U1
  NODEs: N03841$AtoD (IN1),
         N03889 (IN2) => N04324$DtoA (OUT1)  

DIGITAL Message ID#256 (SERIOUS):
PERSISTENT Hazard at time 330.0011us
  On D/A Node "N04324$DtoA"
  See Message ID#255 for probable cause.

DIGITAL Message ID#257 (SERIOUS):
PERSISTENT Hazard at time 330.0011us
  Device: On D/A interface X$N04324_DtoA1.N1, "N04324$DtoA"
  See Message ID#255 for probable cause.

DIGITAL Message ID#258 (WARNING):
AMBIGUITY CONVERGENCE Hazard at time 335.0011us
  Device: X_U5.U1
  NODEs: N03841$AtoD (IN1),
         N03889 (IN2) => N04324$DtoA (OUT1)  

DIGITAL Message ID#259 (SERIOUS):
PERSISTENT Hazard at time 335.0011us
  On D/A Node "N04324$DtoA"
  See Message ID#258 for probable cause.

DIGITAL Message ID#260 (SERIOUS):
PERSISTENT Hazard at time 335.0011us
  Device: On D/A interface X$N04324_DtoA1.N1, "N04324$DtoA"
  See Message ID#258 for probable cause.

DIGITAL Message ID#261 (WARNING):
AMBIGUITY CONVERGENCE Hazard at time 340.0011us
  Device: X_U5.U1
  NODEs: N03841$AtoD (IN1),
         N03889 (IN2) => N04324$DtoA (OUT1)  

DIGITAL Message ID#262 (SERIOUS):
PERSISTENT Hazard at time 340.0011us
  On D/A Node "N04324$DtoA"
  See Message ID#261 for probable cause.

DIGITAL Message ID#263 (SERIOUS):
PERSISTENT Hazard at time 340.0011us
  Device: On D/A interface X$N04324_DtoA1.N1, "N04324$DtoA"
  See Message ID#261 for probable cause.

DIGITAL Message ID#264 (WARNING):
AMBIGUITY CONVERGENCE Hazard at time 345.0011us
  Device: X_U5.U1
  NODEs: N03841$AtoD (IN1),
         N03889 (IN2) => N04324$DtoA (OUT1)  

DIGITAL Message ID#265 (SERIOUS):
PERSISTENT Hazard at time 345.0011us
  On D/A Node "N04324$DtoA"
  See Message ID#264 for probable cause.

DIGITAL Message ID#266 (SERIOUS):
PERSISTENT Hazard at time 345.0011us
  Device: On D/A interface X$N04324_DtoA1.N1, "N04324$DtoA"
  See Message ID#264 for probable cause.

DIGITAL Message ID#267 (WARNING):
AMBIGUITY CONVERGENCE Hazard at time 350.0011us
  Device: X_U5.U1
  NODEs: N03841$AtoD (IN1),
         N03889 (IN2) => N04324$DtoA (OUT1)  

DIGITAL Message ID#268 (SERIOUS):
PERSISTENT Hazard at time 350.0011us
  On D/A Node "N04324$DtoA"
  See Message ID#267 for probable cause.

DIGITAL Message ID#269 (SERIOUS):
PERSISTENT Hazard at time 350.0011us
  Device: On D/A interface X$N04324_DtoA1.N1, "N04324$DtoA"
  See Message ID#267 for probable cause.

DIGITAL Message ID#270 (WARNING):
AMBIGUITY CONVERGENCE Hazard at time 355.0011us
  Device: X_U5.U1
  NODEs: N03841$AtoD (IN1),
         N03889 (IN2) => N04324$DtoA (OUT1)  

DIGITAL Message ID#271 (SERIOUS):
PERSISTENT Hazard at time 355.0011us
  On D/A Node "N04324$DtoA"
  See Message ID#270 for probable cause.

DIGITAL Message ID#272 (SERIOUS):
PERSISTENT Hazard at time 355.0011us
  Device: On D/A interface X$N04324_DtoA1.N1, "N04324$DtoA"
  See Message ID#270 for probable cause.

DIGITAL Message ID#273 (WARNING):
AMBIGUITY CONVERGENCE Hazard at time 360.0011us
  Device: X_U5.U1
  NODEs: N03841$AtoD (IN1),
         N03889 (IN2) => N04324$DtoA (OUT1)  

DIGITAL Message ID#274 (SERIOUS):
PERSISTENT Hazard at time 360.0011us
  On D/A Node "N04324$DtoA"
  See Message ID#273 for probable cause.

DIGITAL Message ID#275 (SERIOUS):
PERSISTENT Hazard at time 360.0011us
  Device: On D/A interface X$N04324_DtoA1.N1, "N04324$DtoA"
  See Message ID#273 for probable cause.

DIGITAL Message ID#276 (WARNING):
AMBIGUITY CONVERGENCE Hazard at time 365.0011us
  Device: X_U5.U1
  NODEs: N03841$AtoD (IN1),
         N03889 (IN2) => N04324$DtoA (OUT1)  

DIGITAL Message ID#277 (SERIOUS):
PERSISTENT Hazard at time 365.0011us
  On D/A Node "N04324$DtoA"
  See Message ID#276 for probable cause.

DIGITAL Message ID#278 (SERIOUS):
PERSISTENT Hazard at time 365.0011us
  Device: On D/A interface X$N04324_DtoA1.N1, "N04324$DtoA"
  See Message ID#276 for probable cause.

DIGITAL Message ID#279 (WARNING):
AMBIGUITY CONVERGENCE Hazard at time 370.0011us
  Device: X_U5.U1
  NODEs: N03841$AtoD (IN1),
         N03889 (IN2) => N04324$DtoA (OUT1)  

DIGITAL Message ID#280 (SERIOUS):
PERSISTENT Hazard at time 370.0011us
  On D/A Node "N04324$DtoA"
  See Message ID#279 for probable cause.

DIGITAL Message ID#281 (SERIOUS):
PERSISTENT Hazard at time 370.0011us
  Device: On D/A interface X$N04324_DtoA1.N1, "N04324$DtoA"
  See Message ID#279 for probable cause.

DIGITAL Message ID#282 (WARNING):
AMBIGUITY CONVERGENCE Hazard at time 375.0011us
  Device: X_U5.U1
  NODEs: N03841$AtoD (IN1),
         N03889 (IN2) => N04324$DtoA (OUT1)  

DIGITAL Message ID#283 (SERIOUS):
PERSISTENT Hazard at time 375.0011us
  On D/A Node "N04324$DtoA"
  See Message ID#282 for probable cause.

DIGITAL Message ID#284 (SERIOUS):
PERSISTENT Hazard at time 375.0011us
  Device: On D/A interface X$N04324_DtoA1.N1, "N04324$DtoA"
  See Message ID#282 for probable cause.

DIGITAL Message ID#285 (WARNING):
AMBIGUITY CONVERGENCE Hazard at time 380.0011us
  Device: X_U5.U1
  NODEs: N03841$AtoD (IN1),
         N03889 (IN2) => N04324$DtoA (OUT1)  

DIGITAL Message ID#286 (SERIOUS):
PERSISTENT Hazard at time 380.0011us
  On D/A Node "N04324$DtoA"
  See Message ID#285 for probable cause.

DIGITAL Message ID#287 (SERIOUS):
PERSISTENT Hazard at time 380.0011us
  Device: On D/A interface X$N04324_DtoA1.N1, "N04324$DtoA"
  See Message ID#285 for probable cause.

DIGITAL Message ID#288 (WARNING):
AMBIGUITY CONVERGENCE Hazard at time 385.0011us
  Device: X_U5.U1
  NODEs: N03841$AtoD (IN1),
         N03889 (IN2) => N04324$DtoA (OUT1)  

DIGITAL Message ID#289 (SERIOUS):
PERSISTENT Hazard at time 385.0011us
  On D/A Node "N04324$DtoA"
  See Message ID#288 for probable cause.

DIGITAL Message ID#290 (SERIOUS):
PERSISTENT Hazard at time 385.0011us
  Device: On D/A interface X$N04324_DtoA1.N1, "N04324$DtoA"
  See Message ID#288 for probable cause.

DIGITAL Message ID#291 (WARNING):
AMBIGUITY CONVERGENCE Hazard at time 390.0011us
  Device: X_U5.U1
  NODEs: N03841$AtoD (IN1),
         N03889 (IN2) => N04324$DtoA (OUT1)  

DIGITAL Message ID#292 (SERIOUS):
PERSISTENT Hazard at time 390.0011us
  On D/A Node "N04324$DtoA"
  See Message ID#291 for probable cause.

DIGITAL Message ID#293 (SERIOUS):
PERSISTENT Hazard at time 390.0011us
  Device: On D/A interface X$N04324_DtoA1.N1, "N04324$DtoA"
  See Message ID#291 for probable cause.

DIGITAL Message ID#294 (WARNING):
AMBIGUITY CONVERGENCE Hazard at time 395.0011us
  Device: X_U5.U1
  NODEs: N03841$AtoD (IN1),
         N03889 (IN2) => N04324$DtoA (OUT1)  

DIGITAL Message ID#295 (SERIOUS):
PERSISTENT Hazard at time 395.0011us
  On D/A Node "N04324$DtoA"
  See Message ID#294 for probable cause.

DIGITAL Message ID#296 (SERIOUS):
PERSISTENT Hazard at time 395.0011us
  Device: On D/A interface X$N04324_DtoA1.N1, "N04324$DtoA"
  See Message ID#294 for probable cause.

DIGITAL Message ID#297 (WARNING):
AMBIGUITY CONVERGENCE Hazard at time 400.0011us
  Device: X_U5.U1
  NODEs: N03841$AtoD (IN1),
         N03889 (IN2) => N04324$DtoA (OUT1)  

DIGITAL Message ID#298 (SERIOUS):
PERSISTENT Hazard at time 400.0011us
  On D/A Node "N04324$DtoA"
  See Message ID#297 for probable cause.

DIGITAL Message ID#299 (SERIOUS):
PERSISTENT Hazard at time 400.0011us
  Device: On D/A interface X$N04324_DtoA1.N1, "N04324$DtoA"
  See Message ID#297 for probable cause.

DIGITAL Message ID#300 (WARNING):
AMBIGUITY CONVERGENCE Hazard at time 405.0011us
  Device: X_U5.U1
  NODEs: N03841$AtoD (IN1),
         N03889 (IN2) => N04324$DtoA (OUT1)  

DIGITAL Message ID#301 (SERIOUS):
PERSISTENT Hazard at time 405.0011us
  On D/A Node "N04324$DtoA"
  See Message ID#300 for probable cause.

DIGITAL Message ID#302 (SERIOUS):
PERSISTENT Hazard at time 405.0011us
  Device: On D/A interface X$N04324_DtoA1.N1, "N04324$DtoA"
  See Message ID#300 for probable cause.

DIGITAL Message ID#303 (WARNING):
AMBIGUITY CONVERGENCE Hazard at time 410.0011us
  Device: X_U5.U1
  NODEs: N03841$AtoD (IN1),
         N03889 (IN2) => N04324$DtoA (OUT1)  

DIGITAL Message ID#304 (SERIOUS):
PERSISTENT Hazard at time 410.0011us
  On D/A Node "N04324$DtoA"
  See Message ID#303 for probable cause.

DIGITAL Message ID#305 (SERIOUS):
PERSISTENT Hazard at time 410.0011us
  Device: On D/A interface X$N04324_DtoA1.N1, "N04324$DtoA"
  See Message ID#303 for probable cause.

DIGITAL Message ID#306 (WARNING):
AMBIGUITY CONVERGENCE Hazard at time 415.0011us
  Device: X_U5.U1
  NODEs: N03841$AtoD (IN1),
         N03889 (IN2) => N04324$DtoA (OUT1)  

DIGITAL Message ID#307 (SERIOUS):
PERSISTENT Hazard at time 415.0011us
  On D/A Node "N04324$DtoA"
  See Message ID#306 for probable cause.

DIGITAL Message ID#308 (SERIOUS):
PERSISTENT Hazard at time 415.0011us
  Device: On D/A interface X$N04324_DtoA1.N1, "N04324$DtoA"
  See Message ID#306 for probable cause.

DIGITAL Message ID#309 (WARNING):
AMBIGUITY CONVERGENCE Hazard at time 420.0011us
  Device: X_U5.U1
  NODEs: N03841$AtoD (IN1),
         N03889 (IN2) => N04324$DtoA (OUT1)  

DIGITAL Message ID#310 (SERIOUS):
PERSISTENT Hazard at time 420.0011us
  On D/A Node "N04324$DtoA"
  See Message ID#309 for probable cause.

DIGITAL Message ID#311 (SERIOUS):
PERSISTENT Hazard at time 420.0011us
  Device: On D/A interface X$N04324_DtoA1.N1, "N04324$DtoA"
  See Message ID#309 for probable cause.

DIGITAL Message ID#312 (WARNING):
AMBIGUITY CONVERGENCE Hazard at time 425.0011us
  Device: X_U5.U1
  NODEs: N03841$AtoD (IN1),
         N03889 (IN2) => N04324$DtoA (OUT1)  

DIGITAL Message ID#313 (SERIOUS):
PERSISTENT Hazard at time 425.0011us
  On D/A Node "N04324$DtoA"
  See Message ID#312 for probable cause.

DIGITAL Message ID#314 (SERIOUS):
PERSISTENT Hazard at time 425.0011us
  Device: On D/A interface X$N04324_DtoA1.N1, "N04324$DtoA"
  See Message ID#312 for probable cause.

DIGITAL Message ID#315 (WARNING):
AMBIGUITY CONVERGENCE Hazard at time 430.0011us
  Device: X_U5.U1
  NODEs: N03841$AtoD (IN1),
         N03889 (IN2) => N04324$DtoA (OUT1)  

DIGITAL Message ID#316 (SERIOUS):
PERSISTENT Hazard at time 430.0011us
  On D/A Node "N04324$DtoA"
  See Message ID#315 for probable cause.

DIGITAL Message ID#317 (SERIOUS):
PERSISTENT Hazard at time 430.0011us
  Device: On D/A interface X$N04324_DtoA1.N1, "N04324$DtoA"
  See Message ID#315 for probable cause.

DIGITAL Message ID#318 (WARNING):
AMBIGUITY CONVERGENCE Hazard at time 435.0011us
  Device: X_U5.U1
  NODEs: N03841$AtoD (IN1),
         N03889 (IN2) => N04324$DtoA (OUT1)  

DIGITAL Message ID#319 (SERIOUS):
PERSISTENT Hazard at time 435.0011us
  On D/A Node "N04324$DtoA"
  See Message ID#318 for probable cause.

DIGITAL Message ID#320 (SERIOUS):
PERSISTENT Hazard at time 435.0011us
  Device: On D/A interface X$N04324_DtoA1.N1, "N04324$DtoA"
  See Message ID#318 for probable cause.

DIGITAL Message ID#321 (WARNING):
AMBIGUITY CONVERGENCE Hazard at time 440.0011us
  Device: X_U5.U1
  NODEs: N03841$AtoD (IN1),
         N03889 (IN2) => N04324$DtoA (OUT1)  

DIGITAL Message ID#322 (SERIOUS):
PERSISTENT Hazard at time 440.0011us
  On D/A Node "N04324$DtoA"
  See Message ID#321 for probable cause.

DIGITAL Message ID#323 (SERIOUS):
PERSISTENT Hazard at time 440.0011us
  Device: On D/A interface X$N04324_DtoA1.N1, "N04324$DtoA"
  See Message ID#321 for probable cause.

DIGITAL Message ID#324 (WARNING):
AMBIGUITY CONVERGENCE Hazard at time 445.0011us
  Device: X_U5.U1
  NODEs: N03841$AtoD (IN1),
         N03889 (IN2) => N04324$DtoA (OUT1)  

DIGITAL Message ID#325 (SERIOUS):
PERSISTENT Hazard at time 445.0011us
  On D/A Node "N04324$DtoA"
  See Message ID#324 for probable cause.

DIGITAL Message ID#326 (SERIOUS):
PERSISTENT Hazard at time 445.0011us
  Device: On D/A interface X$N04324_DtoA1.N1, "N04324$DtoA"
  See Message ID#324 for probable cause.

DIGITAL Message ID#327 (WARNING):
AMBIGUITY CONVERGENCE Hazard at time 450.0011us
  Device: X_U5.U1
  NODEs: N03841$AtoD (IN1),
         N03889 (IN2) => N04324$DtoA (OUT1)  

DIGITAL Message ID#328 (SERIOUS):
PERSISTENT Hazard at time 450.0011us
  On D/A Node "N04324$DtoA"
  See Message ID#327 for probable cause.

DIGITAL Message ID#329 (SERIOUS):
PERSISTENT Hazard at time 450.0011us
  Device: On D/A interface X$N04324_DtoA1.N1, "N04324$DtoA"
  See Message ID#327 for probable cause.

DIGITAL Message ID#330 (WARNING):
AMBIGUITY CONVERGENCE Hazard at time 455.0011us
  Device: X_U5.U1
  NODEs: N03841$AtoD (IN1),
         N03889 (IN2) => N04324$DtoA (OUT1)  

DIGITAL Message ID#331 (SERIOUS):
PERSISTENT Hazard at time 455.0011us
  On D/A Node "N04324$DtoA"
  See Message ID#330 for probable cause.

DIGITAL Message ID#332 (SERIOUS):
PERSISTENT Hazard at time 455.0011us
  Device: On D/A interface X$N04324_DtoA1.N1, "N04324$DtoA"
  See Message ID#330 for probable cause.

DIGITAL Message ID#333 (WARNING):
AMBIGUITY CONVERGENCE Hazard at time 460.0011us
  Device: X_U5.U1
  NODEs: N03841$AtoD (IN1),
         N03889 (IN2) => N04324$DtoA (OUT1)  

DIGITAL Message ID#334 (SERIOUS):
PERSISTENT Hazard at time 460.0011us
  On D/A Node "N04324$DtoA"
  See Message ID#333 for probable cause.

DIGITAL Message ID#335 (SERIOUS):
PERSISTENT Hazard at time 460.0011us
  Device: On D/A interface X$N04324_DtoA1.N1, "N04324$DtoA"
  See Message ID#333 for probable cause.

DIGITAL Message ID#336 (WARNING):
AMBIGUITY CONVERGENCE Hazard at time 465.0011us
  Device: X_U5.U1
  NODEs: N03841$AtoD (IN1),
         N03889 (IN2) => N04324$DtoA (OUT1)  

DIGITAL Message ID#337 (SERIOUS):
PERSISTENT Hazard at time 465.0011us
  On D/A Node "N04324$DtoA"
  See Message ID#336 for probable cause.

DIGITAL Message ID#338 (SERIOUS):
PERSISTENT Hazard at time 465.0011us
  Device: On D/A interface X$N04324_DtoA1.N1, "N04324$DtoA"
  See Message ID#336 for probable cause.

DIGITAL Message ID#339 (WARNING):
AMBIGUITY CONVERGENCE Hazard at time 470.0011us
  Device: X_U5.U1
  NODEs: N03841$AtoD (IN1),
         N03889 (IN2) => N04324$DtoA (OUT1)  

DIGITAL Message ID#340 (SERIOUS):
PERSISTENT Hazard at time 470.0011us
  On D/A Node "N04324$DtoA"
  See Message ID#339 for probable cause.

DIGITAL Message ID#341 (SERIOUS):
PERSISTENT Hazard at time 470.0011us
  Device: On D/A interface X$N04324_DtoA1.N1, "N04324$DtoA"
  See Message ID#339 for probable cause.

DIGITAL Message ID#342 (WARNING):
AMBIGUITY CONVERGENCE Hazard at time 475.0011us
  Device: X_U5.U1
  NODEs: N03841$AtoD (IN1),
         N03889 (IN2) => N04324$DtoA (OUT1)  

DIGITAL Message ID#343 (SERIOUS):
PERSISTENT Hazard at time 475.0011us
  On D/A Node "N04324$DtoA"
  See Message ID#342 for probable cause.

DIGITAL Message ID#344 (SERIOUS):
PERSISTENT Hazard at time 475.0011us
  Device: On D/A interface X$N04324_DtoA1.N1, "N04324$DtoA"
  See Message ID#342 for probable cause.

DIGITAL Message ID#345 (WARNING):
AMBIGUITY CONVERGENCE Hazard at time 480.0011us
  Device: X_U5.U1
  NODEs: N03841$AtoD (IN1),
         N03889 (IN2) => N04324$DtoA (OUT1)  

DIGITAL Message ID#346 (SERIOUS):
PERSISTENT Hazard at time 480.0011us
  On D/A Node "N04324$DtoA"
  See Message ID#345 for probable cause.

DIGITAL Message ID#347 (SERIOUS):
PERSISTENT Hazard at time 480.0011us
  Device: On D/A interface X$N04324_DtoA1.N1, "N04324$DtoA"
  See Message ID#345 for probable cause.

DIGITAL Message ID#348 (WARNING):
AMBIGUITY CONVERGENCE Hazard at time 485.0011us
  Device: X_U5.U1
  NODEs: N03841$AtoD (IN1),
         N03889 (IN2) => N04324$DtoA (OUT1)  

DIGITAL Message ID#349 (SERIOUS):
PERSISTENT Hazard at time 485.0011us
  On D/A Node "N04324$DtoA"
  See Message ID#348 for probable cause.

DIGITAL Message ID#350 (SERIOUS):
PERSISTENT Hazard at time 485.0011us
  Device: On D/A interface X$N04324_DtoA1.N1, "N04324$DtoA"
  See Message ID#348 for probable cause.

DIGITAL Message ID#351 (WARNING):
AMBIGUITY CONVERGENCE Hazard at time 490.0011us
  Device: X_U5.U1
  NODEs: N03841$AtoD (IN1),
         N03889 (IN2) => N04324$DtoA (OUT1)  

DIGITAL Message ID#352 (SERIOUS):
PERSISTENT Hazard at time 490.0011us
  On D/A Node "N04324$DtoA"
  See Message ID#351 for probable cause.

DIGITAL Message ID#353 (SERIOUS):
PERSISTENT Hazard at time 490.0011us
  Device: On D/A interface X$N04324_DtoA1.N1, "N04324$DtoA"
  See Message ID#351 for probable cause.

DIGITAL Message ID#354 (WARNING):
AMBIGUITY CONVERGENCE Hazard at time 495.0011us
  Device: X_U5.U1
  NODEs: N03841$AtoD (IN1),
         N03889 (IN2) => N04324$DtoA (OUT1)  

DIGITAL Message ID#355 (SERIOUS):
PERSISTENT Hazard at time 495.0011us
  On D/A Node "N04324$DtoA"
  See Message ID#354 for probable cause.

DIGITAL Message ID#356 (SERIOUS):
PERSISTENT Hazard at time 495.0011us
  Device: On D/A interface X$N04324_DtoA1.N1, "N04324$DtoA"
  See Message ID#354 for probable cause.

DIGITAL Message ID#357 (WARNING):
AMBIGUITY CONVERGENCE Hazard at time 500.0011us
  Device: X_U5.U1
  NODEs: N03841$AtoD (IN1),
         N03889 (IN2) => N04324$DtoA (OUT1)  

DIGITAL Message ID#358 (SERIOUS):
PERSISTENT Hazard at time 500.0011us
  On D/A Node "N04324$DtoA"
  See Message ID#357 for probable cause.

DIGITAL Message ID#359 (SERIOUS):
PERSISTENT Hazard at time 500.0011us
  Device: On D/A interface X$N04324_DtoA1.N1, "N04324$DtoA"
  See Message ID#357 for probable cause.

DIGITAL Message ID#360 (WARNING):
AMBIGUITY CONVERGENCE Hazard at time 505.0011us
  Device: X_U5.U1
  NODEs: N03841$AtoD (IN1),
         N03889 (IN2) => N04324$DtoA (OUT1)  

DIGITAL Message ID#361 (SERIOUS):
PERSISTENT Hazard at time 505.0011us
  On D/A Node "N04324$DtoA"
  See Message ID#360 for probable cause.

DIGITAL Message ID#362 (SERIOUS):
PERSISTENT Hazard at time 505.0011us
  Device: On D/A interface X$N04324_DtoA1.N1, "N04324$DtoA"
  See Message ID#360 for probable cause.

DIGITAL Message ID#363 (WARNING):
AMBIGUITY CONVERGENCE Hazard at time 510.0011us
  Device: X_U5.U1
  NODEs: N03841$AtoD (IN1),
         N03889 (IN2) => N04324$DtoA (OUT1)  

DIGITAL Message ID#364 (SERIOUS):
PERSISTENT Hazard at time 510.0011us
  On D/A Node "N04324$DtoA"
  See Message ID#363 for probable cause.

DIGITAL Message ID#365 (SERIOUS):
PERSISTENT Hazard at time 510.0011us
  Device: On D/A interface X$N04324_DtoA1.N1, "N04324$DtoA"
  See Message ID#363 for probable cause.

DIGITAL Message ID#366 (WARNING):
AMBIGUITY CONVERGENCE Hazard at time 515.0011us
  Device: X_U5.U1
  NODEs: N03841$AtoD (IN1),
         N03889 (IN2) => N04324$DtoA (OUT1)  

DIGITAL Message ID#367 (SERIOUS):
PERSISTENT Hazard at time 515.0011us
  On D/A Node "N04324$DtoA"
  See Message ID#366 for probable cause.

DIGITAL Message ID#368 (SERIOUS):
PERSISTENT Hazard at time 515.0011us
  Device: On D/A interface X$N04324_DtoA1.N1, "N04324$DtoA"
  See Message ID#366 for probable cause.

DIGITAL Message ID#369 (WARNING):
AMBIGUITY CONVERGENCE Hazard at time 520.0011us
  Device: X_U5.U1
  NODEs: N03841$AtoD (IN1),
         N03889 (IN2) => N04324$DtoA (OUT1)  

DIGITAL Message ID#370 (SERIOUS):
PERSISTENT Hazard at time 520.0011us
  On D/A Node "N04324$DtoA"
  See Message ID#369 for probable cause.

DIGITAL Message ID#371 (SERIOUS):
PERSISTENT Hazard at time 520.0011us
  Device: On D/A interface X$N04324_DtoA1.N1, "N04324$DtoA"
  See Message ID#369 for probable cause.

DIGITAL Message ID#372 (WARNING):
AMBIGUITY CONVERGENCE Hazard at time 525.0011us
  Device: X_U5.U1
  NODEs: N03841$AtoD (IN1),
         N03889 (IN2) => N04324$DtoA (OUT1)  

DIGITAL Message ID#373 (SERIOUS):
PERSISTENT Hazard at time 525.0011us
  On D/A Node "N04324$DtoA"
  See Message ID#372 for probable cause.

DIGITAL Message ID#374 (SERIOUS):
PERSISTENT Hazard at time 525.0011us
  Device: On D/A interface X$N04324_DtoA1.N1, "N04324$DtoA"
  See Message ID#372 for probable cause.

DIGITAL Message ID#375 (WARNING):
AMBIGUITY CONVERGENCE Hazard at time 530.0011us
  Device: X_U5.U1
  NODEs: N03841$AtoD (IN1),
         N03889 (IN2) => N04324$DtoA (OUT1)  

DIGITAL Message ID#376 (SERIOUS):
PERSISTENT Hazard at time 530.0011us
  On D/A Node "N04324$DtoA"
  See Message ID#375 for probable cause.

DIGITAL Message ID#377 (SERIOUS):
PERSISTENT Hazard at time 530.0011us
  Device: On D/A interface X$N04324_DtoA1.N1, "N04324$DtoA"
  See Message ID#375 for probable cause.

DIGITAL Message ID#378 (WARNING):
AMBIGUITY CONVERGENCE Hazard at time 535.0011us
  Device: X_U5.U1
  NODEs: N03841$AtoD (IN1),
         N03889 (IN2) => N04324$DtoA (OUT1)  

DIGITAL Message ID#379 (SERIOUS):
PERSISTENT Hazard at time 535.0011us
  On D/A Node "N04324$DtoA"
  See Message ID#378 for probable cause.

DIGITAL Message ID#380 (SERIOUS):
PERSISTENT Hazard at time 535.0011us
  Device: On D/A interface X$N04324_DtoA1.N1, "N04324$DtoA"
  See Message ID#378 for probable cause.

DIGITAL Message ID#381 (WARNING):
AMBIGUITY CONVERGENCE Hazard at time 540.0011us
  Device: X_U5.U1
  NODEs: N03841$AtoD (IN1),
         N03889 (IN2) => N04324$DtoA (OUT1)  

DIGITAL Message ID#382 (SERIOUS):
PERSISTENT Hazard at time 540.0011us
  On D/A Node "N04324$DtoA"
  See Message ID#381 for probable cause.

DIGITAL Message ID#383 (SERIOUS):
PERSISTENT Hazard at time 540.0011us
  Device: On D/A interface X$N04324_DtoA1.N1, "N04324$DtoA"
  See Message ID#381 for probable cause.

DIGITAL Message ID#384 (WARNING):
AMBIGUITY CONVERGENCE Hazard at time 545.0011us
  Device: X_U5.U1
  NODEs: N03841$AtoD (IN1),
         N03889 (IN2) => N04324$DtoA (OUT1)  

DIGITAL Message ID#385 (SERIOUS):
PERSISTENT Hazard at time 545.0011us
  On D/A Node "N04324$DtoA"
  See Message ID#384 for probable cause.

DIGITAL Message ID#386 (SERIOUS):
PERSISTENT Hazard at time 545.0011us
  Device: On D/A interface X$N04324_DtoA1.N1, "N04324$DtoA"
  See Message ID#384 for probable cause.

DIGITAL Message ID#387 (WARNING):
AMBIGUITY CONVERGENCE Hazard at time 550.0011us
  Device: X_U5.U1
  NODEs: N03841$AtoD (IN1),
         N03889 (IN2) => N04324$DtoA (OUT1)  

DIGITAL Message ID#388 (SERIOUS):
PERSISTENT Hazard at time 550.0011us
  On D/A Node "N04324$DtoA"
  See Message ID#387 for probable cause.

DIGITAL Message ID#389 (SERIOUS):
PERSISTENT Hazard at time 550.0011us
  Device: On D/A interface X$N04324_DtoA1.N1, "N04324$DtoA"
  See Message ID#387 for probable cause.

DIGITAL Message ID#390 (WARNING):
AMBIGUITY CONVERGENCE Hazard at time 555.0011us
  Device: X_U5.U1
  NODEs: N03841$AtoD (IN1),
         N03889 (IN2) => N04324$DtoA (OUT1)  

DIGITAL Message ID#391 (SERIOUS):
PERSISTENT Hazard at time 555.0011us
  On D/A Node "N04324$DtoA"
  See Message ID#390 for probable cause.

DIGITAL Message ID#392 (SERIOUS):
PERSISTENT Hazard at time 555.0011us
  Device: On D/A interface X$N04324_DtoA1.N1, "N04324$DtoA"
  See Message ID#390 for probable cause.

DIGITAL Message ID#393 (WARNING):
AMBIGUITY CONVERGENCE Hazard at time 560.0011us
  Device: X_U5.U1
  NODEs: N03841$AtoD (IN1),
         N03889 (IN2) => N04324$DtoA (OUT1)  

DIGITAL Message ID#394 (SERIOUS):
PERSISTENT Hazard at time 560.0011us
  On D/A Node "N04324$DtoA"
  See Message ID#393 for probable cause.

DIGITAL Message ID#395 (SERIOUS):
PERSISTENT Hazard at time 560.0011us
  Device: On D/A interface X$N04324_DtoA1.N1, "N04324$DtoA"
  See Message ID#393 for probable cause.

DIGITAL Message ID#396 (WARNING):
AMBIGUITY CONVERGENCE Hazard at time 565.0011us
  Device: X_U5.U1
  NODEs: N03841$AtoD (IN1),
         N03889 (IN2) => N04324$DtoA (OUT1)  

DIGITAL Message ID#397 (SERIOUS):
PERSISTENT Hazard at time 565.0011us
[...]
  NODEs: N03841$AtoD (IN1),
         N03889 (IN2) => N04324$DtoA (OUT1)  

DIGITAL Message ID#838 (SERIOUS):
PERSISTENT Hazard at time 1.3000011ms
  On D/A Node "N04324$DtoA"
  See Message ID#837 for probable cause.

DIGITAL Message ID#839 (SERIOUS):
PERSISTENT Hazard at time 1.3000011ms
  Device: On D/A interface X$N04324_DtoA1.N1, "N04324$DtoA"
  See Message ID#837 for probable cause.

DIGITAL Message ID#840 (WARNING):
AMBIGUITY CONVERGENCE Hazard at time 1.3050011ms
  Device: X_U5.U1
  NODEs: N03841$AtoD (IN1),
         N03889 (IN2) => N04324$DtoA (OUT1)  

DIGITAL Message ID#841 (SERIOUS):
PERSISTENT Hazard at time 1.3050011ms
  On D/A Node "N04324$DtoA"
  See Message ID#840 for probable cause.

DIGITAL Message ID#842 (SERIOUS):
PERSISTENT Hazard at time 1.3050011ms
  Device: On D/A interface X$N04324_DtoA1.N1, "N04324$DtoA"
  See Message ID#840 for probable cause.

DIGITAL Message ID#843 (WARNING):
AMBIGUITY CONVERGENCE Hazard at time 1.3100011ms
  Device: X_U5.U1
  NODEs: N03841$AtoD (IN1),
         N03889 (IN2) => N04324$DtoA (OUT1)  

DIGITAL Message ID#844 (SERIOUS):
PERSISTENT Hazard at time 1.3100011ms
  On D/A Node "N04324$DtoA"
  See Message ID#843 for probable cause.

DIGITAL Message ID#845 (SERIOUS):
PERSISTENT Hazard at time 1.3100011ms
  Device: On D/A interface X$N04324_DtoA1.N1, "N04324$DtoA"
  See Message ID#843 for probable cause.

DIGITAL Message ID#846 (WARNING):
AMBIGUITY CONVERGENCE Hazard at time 1.3150011ms
  Device: X_U5.U1
  NODEs: N03841$AtoD (IN1),
         N03889 (IN2) => N04324$DtoA (OUT1)  

DIGITAL Message ID#847 (SERIOUS):
PERSISTENT Hazard at time 1.3150011ms
  On D/A Node "N04324$DtoA"
  See Message ID#846 for probable cause.

DIGITAL Message ID#848 (SERIOUS):
PERSISTENT Hazard at time 1.3150011ms
  Device: On D/A interface X$N04324_DtoA1.N1, "N04324$DtoA"
  See Message ID#846 for probable cause.

DIGITAL Message ID#849 (WARNING):
AMBIGUITY CONVERGENCE Hazard at time 1.3200011ms
  Device: X_U5.U1
  NODEs: N03841$AtoD (IN1),
         N03889 (IN2) => N04324$DtoA (OUT1)  

DIGITAL Message ID#850 (SERIOUS):
PERSISTENT Hazard at time 1.3200011ms
  On D/A Node "N04324$DtoA"
  See Message ID#849 for probable cause.

DIGITAL Message ID#851 (SERIOUS):
PERSISTENT Hazard at time 1.3200011ms
  Device: On D/A interface X$N04324_DtoA1.N1, "N04324$DtoA"
  See Message ID#849 for probable cause.

DIGITAL Message ID#852 (WARNING):
AMBIGUITY CONVERGENCE Hazard at time 1.3250011ms
  Device: X_U5.U1
  NODEs: N03841$AtoD (IN1),
         N03889 (IN2) => N04324$DtoA (OUT1)  

DIGITAL Message ID#853 (SERIOUS):
PERSISTENT Hazard at time 1.3250011ms
  On D/A Node "N04324$DtoA"
  See Message ID#852 for probable cause.

DIGITAL Message ID#854 (SERIOUS):
PERSISTENT Hazard at time 1.3250011ms
  Device: On D/A interface X$N04324_DtoA1.N1, "N04324$DtoA"
  See Message ID#852 for probable cause.

DIGITAL Message ID#855 (WARNING):
AMBIGUITY CONVERGENCE Hazard at time 1.3300011ms
  Device: X_U5.U1
  NODEs: N03841$AtoD (IN1),
         N03889 (IN2) => N04324$DtoA (OUT1)  

DIGITAL Message ID#856 (SERIOUS):
PERSISTENT Hazard at time 1.3300011ms
  On D/A Node "N04324$DtoA"
  See Message ID#855 for probable cause.

DIGITAL Message ID#857 (SERIOUS):
PERSISTENT Hazard at time 1.3300011ms
  Device: On D/A interface X$N04324_DtoA1.N1, "N04324$DtoA"
  See Message ID#855 for probable cause.

DIGITAL Message ID#858 (WARNING):
AMBIGUITY CONVERGENCE Hazard at time 1.3350011ms
  Device: X_U5.U1
  NODEs: N03841$AtoD (IN1),
         N03889 (IN2) => N04324$DtoA (OUT1)  

DIGITAL Message ID#859 (SERIOUS):
PERSISTENT Hazard at time 1.3350011ms
  On D/A Node "N04324$DtoA"
  See Message ID#858 for probable cause.

DIGITAL Message ID#860 (SERIOUS):
PERSISTENT Hazard at time 1.3350011ms
  Device: On D/A interface X$N04324_DtoA1.N1, "N04324$DtoA"
  See Message ID#858 for probable cause.

DIGITAL Message ID#861 (WARNING):
AMBIGUITY CONVERGENCE Hazard at time 1.3400011ms
  Device: X_U5.U1
  NODEs: N03841$AtoD (IN1),
         N03889 (IN2) => N04324$DtoA (OUT1)  

DIGITAL Message ID#862 (SERIOUS):
PERSISTENT Hazard at time 1.3400011ms
  On D/A Node "N04324$DtoA"
  See Message ID#861 for probable cause.

DIGITAL Message ID#863 (SERIOUS):
PERSISTENT Hazard at time 1.3400011ms
  Device: On D/A interface X$N04324_DtoA1.N1, "N04324$DtoA"
  See Message ID#861 for probable cause.

DIGITAL Message ID#864 (WARNING):
AMBIGUITY CONVERGENCE Hazard at time 1.3450011ms
  Device: X_U5.U1
  NODEs: N03841$AtoD (IN1),
         N03889 (IN2) => N04324$DtoA (OUT1)  

DIGITAL Message ID#865 (SERIOUS):
PERSISTENT Hazard at time 1.3450011ms
  On D/A Node "N04324$DtoA"
  See Message ID#864 for probable cause.

DIGITAL Message ID#866 (SERIOUS):
PERSISTENT Hazard at time 1.3450011ms
  Device: On D/A interface X$N04324_DtoA1.N1, "N04324$DtoA"
  See Message ID#864 for probable cause.

DIGITAL Message ID#867 (WARNING):
AMBIGUITY CONVERGENCE Hazard at time 1.3500011ms
  Device: X_U5.U1
  NODEs: N03841$AtoD (IN1),
         N03889 (IN2) => N04324$DtoA (OUT1)  

DIGITAL Message ID#868 (SERIOUS):
PERSISTENT Hazard at time 1.3500011ms
  On D/A Node "N04324$DtoA"
  See Message ID#867 for probable cause.

DIGITAL Message ID#869 (SERIOUS):
PERSISTENT Hazard at time 1.3500011ms
  Device: On D/A interface X$N04324_DtoA1.N1, "N04324$DtoA"
  See Message ID#867 for probable cause.

DIGITAL Message ID#870 (WARNING):
AMBIGUITY CONVERGENCE Hazard at time 1.3550011ms
  Device: X_U5.U1
  NODEs: N03841$AtoD (IN1),
         N03889 (IN2) => N04324$DtoA (OUT1)  

DIGITAL Message ID#871 (SERIOUS):
PERSISTENT Hazard at time 1.3550011ms
  On D/A Node "N04324$DtoA"
  See Message ID#870 for probable cause.

DIGITAL Message ID#872 (SERIOUS):
PERSISTENT Hazard at time 1.3550011ms
  Device: On D/A interface X$N04324_DtoA1.N1, "N04324$DtoA"
  See Message ID#870 for probable cause.

DIGITAL Message ID#873 (WARNING):
AMBIGUITY CONVERGENCE Hazard at time 1.3600011ms
  Device: X_U5.U1
  NODEs: N03841$AtoD (IN1),
         N03889 (IN2) => N04324$DtoA (OUT1)  

DIGITAL Message ID#874 (SERIOUS):
PERSISTENT Hazard at time 1.3600011ms
  On D/A Node "N04324$DtoA"
  See Message ID#873 for probable cause.

DIGITAL Message ID#875 (SERIOUS):
PERSISTENT Hazard at time 1.3600011ms
  Device: On D/A interface X$N04324_DtoA1.N1, "N04324$DtoA"
  See Message ID#873 for probable cause.

DIGITAL Message ID#876 (WARNING):
AMBIGUITY CONVERGENCE Hazard at time 1.3650011ms
  Device: X_U5.U1
  NODEs: N03841$AtoD (IN1),
         N03889 (IN2) => N04324$DtoA (OUT1)  

DIGITAL Message ID#877 (SERIOUS):
PERSISTENT Hazard at time 1.3650011ms
  On D/A Node "N04324$DtoA"
  See Message ID#876 for probable cause.

DIGITAL Message ID#878 (SERIOUS):
PERSISTENT Hazard at time 1.3650011ms
  Device: On D/A interface X$N04324_DtoA1.N1, "N04324$DtoA"
  See Message ID#876 for probable cause.

DIGITAL Message ID#879 (WARNING):
AMBIGUITY CONVERGENCE Hazard at time 1.3700011ms
  Device: X_U5.U1
  NODEs: N03841$AtoD (IN1),
         N03889 (IN2) => N04324$DtoA (OUT1)  

DIGITAL Message ID#880 (SERIOUS):
PERSISTENT Hazard at time 1.3700011ms
  On D/A Node "N04324$DtoA"
  See Message ID#879 for probable cause.

DIGITAL Message ID#881 (SERIOUS):
PERSISTENT Hazard at time 1.3700011ms
  Device: On D/A interface X$N04324_DtoA1.N1, "N04324$DtoA"
  See Message ID#879 for probable cause.

DIGITAL Message ID#882 (WARNING):
AMBIGUITY CONVERGENCE Hazard at time 1.3750011ms
  Device: X_U5.U1
  NODEs: N03841$AtoD (IN1),
         N03889 (IN2) => N04324$DtoA (OUT1)  

DIGITAL Message ID#883 (SERIOUS):
PERSISTENT Hazard at time 1.3750011ms
  On D/A Node "N04324$DtoA"
  See Message ID#882 for probable cause.

DIGITAL Message ID#884 (SERIOUS):
PERSISTENT Hazard at time 1.3750011ms
  Device: On D/A interface X$N04324_DtoA1.N1, "N04324$DtoA"
  See Message ID#882 for probable cause.

DIGITAL Message ID#885 (WARNING):
AMBIGUITY CONVERGENCE Hazard at time 1.3800011ms
  Device: X_U5.U1
  NODEs: N03841$AtoD (IN1),
         N03889 (IN2) => N04324$DtoA (OUT1)  

DIGITAL Message ID#886 (SERIOUS):
PERSISTENT Hazard at time 1.3800011ms
  On D/A Node "N04324$DtoA"
  See Message ID#885 for probable cause.

DIGITAL Message ID#887 (SERIOUS):
PERSISTENT Hazard at time 1.3800011ms
  Device: On D/A interface X$N04324_DtoA1.N1, "N04324$DtoA"
  See Message ID#885 for probable cause.

DIGITAL Message ID#888 (WARNING):
AMBIGUITY CONVERGENCE Hazard at time 1.3850011ms
  Device: X_U5.U1
  NODEs: N03841$AtoD (IN1),
         N03889 (IN2) => N04324$DtoA (OUT1)  

DIGITAL Message ID#889 (SERIOUS):
PERSISTENT Hazard at time 1.3850011ms
  On D/A Node "N04324$DtoA"
  See Message ID#888 for probable cause.

DIGITAL Message ID#890 (SERIOUS):
PERSISTENT Hazard at time 1.3850011ms
  Device: On D/A interface X$N04324_DtoA1.N1, "N04324$DtoA"
  See Message ID#888 for probable cause.

DIGITAL Message ID#891 (WARNING):
AMBIGUITY CONVERGENCE Hazard at time 1.3900011ms
  Device: X_U5.U1
  NODEs: N03841$AtoD (IN1),
         N03889 (IN2) => N04324$DtoA (OUT1)  

DIGITAL Message ID#892 (SERIOUS):
PERSISTENT Hazard at time 1.3900011ms
  On D/A Node "N04324$DtoA"
  See Message ID#891 for probable cause.

DIGITAL Message ID#893 (SERIOUS):
PERSISTENT Hazard at time 1.3900011ms
  Device: On D/A interface X$N04324_DtoA1.N1, "N04324$DtoA"
  See Message ID#891 for probable cause.

DIGITAL Message ID#894 (WARNING):
AMBIGUITY CONVERGENCE Hazard at time 1.3950011ms
  Device: X_U5.U1
  NODEs: N03841$AtoD (IN1),
         N03889 (IN2) => N04324$DtoA (OUT1)  

DIGITAL Message ID#895 (SERIOUS):
PERSISTENT Hazard at time 1.3950011ms
  On D/A Node "N04324$DtoA"
  See Message ID#894 for probable cause.

DIGITAL Message ID#896 (SERIOUS):
PERSISTENT Hazard at time 1.3950011ms
  Device: On D/A interface X$N04324_DtoA1.N1, "N04324$DtoA"
  See Message ID#894 for probable cause.

DIGITAL Message ID#897 (WARNING):
AMBIGUITY CONVERGENCE Hazard at time 1.4000011ms
  Device: X_U5.U1
  NODEs: N03841$AtoD (IN1),
         N03889 (IN2) => N04324$DtoA (OUT1)  

DIGITAL Message ID#898 (SERIOUS):
PERSISTENT Hazard at time 1.4000011ms
  On D/A Node "N04324$DtoA"
  See Message ID#897 for probable cause.

DIGITAL Message ID#899 (SERIOUS):
PERSISTENT Hazard at time 1.4000011ms
  Device: On D/A interface X$N04324_DtoA1.N1, "N04324$DtoA"
  See Message ID#897 for probable cause.

DIGITAL Message ID#900 (WARNING):
AMBIGUITY CONVERGENCE Hazard at time 1.4050011ms
  Device: X_U5.U1
  NODEs: N03841$AtoD (IN1),
         N03889 (IN2) => N04324$DtoA (OUT1)  

DIGITAL Message ID#901 (SERIOUS):
PERSISTENT Hazard at time 1.4050011ms
  On D/A Node "N04324$DtoA"
  See Message ID#900 for probable cause.

DIGITAL Message ID#902 (SERIOUS):
PERSISTENT Hazard at time 1.4050011ms
  Device: On D/A interface X$N04324_DtoA1.N1, "N04324$DtoA"
  See Message ID#900 for probable cause.

DIGITAL Message ID#903 (WARNING):
AMBIGUITY CONVERGENCE Hazard at time 1.4100011ms
  Device: X_U5.U1
  NODEs: N03841$AtoD (IN1),
         N03889 (IN2) => N04324$DtoA (OUT1)  

DIGITAL Message ID#904 (SERIOUS):
PERSISTENT Hazard at time 1.4100011ms
  On D/A Node "N04324$DtoA"
  See Message ID#903 for probable cause.

DIGITAL Message ID#905 (SERIOUS):
PERSISTENT Hazard at time 1.4100011ms
  Device: On D/A interface X$N04324_DtoA1.N1, "N04324$DtoA"
  See Message ID#903 for probable cause.

DIGITAL Message ID#906 (WARNING):
AMBIGUITY CONVERGENCE Hazard at time 1.4150011ms
  Device: X_U5.U1
  NODEs: N03841$AtoD (IN1),
         N03889 (IN2) => N04324$DtoA (OUT1)  

DIGITAL Message ID#907 (SERIOUS):
PERSISTENT Hazard at time 1.4150011ms
  On D/A Node "N04324$DtoA"
  See Message ID#906 for probable cause.

DIGITAL Message ID#908 (SERIOUS):
PERSISTENT Hazard at time 1.4150011ms
  Device: On D/A interface X$N04324_DtoA1.N1, "N04324$DtoA"
  See Message ID#906 for probable cause.

DIGITAL Message ID#909 (WARNING):
AMBIGUITY CONVERGENCE Hazard at time 1.4200011ms
  Device: X_U5.U1
  NODEs: N03841$AtoD (IN1),
         N03889 (IN2) => N04324$DtoA (OUT1)  

DIGITAL Message ID#910 (SERIOUS):
PERSISTENT Hazard at time 1.4200011ms
  On D/A Node "N04324$DtoA"
  See Message ID#909 for probable cause.

DIGITAL Message ID#911 (SERIOUS):
PERSISTENT Hazard at time 1.4200011ms
  Device: On D/A interface X$N04324_DtoA1.N1, "N04324$DtoA"
  See Message ID#909 for probable cause.

DIGITAL Message ID#912 (WARNING):
AMBIGUITY CONVERGENCE Hazard at time 1.4250011ms
  Device: X_U5.U1
  NODEs: N03841$AtoD (IN1),
         N03889 (IN2) => N04324$DtoA (OUT1)  

DIGITAL Message ID#913 (SERIOUS):
PERSISTENT Hazard at time 1.4250011ms
  On D/A Node "N04324$DtoA"
  See Message ID#912 for probable cause.

DIGITAL Message ID#914 (SERIOUS):
PERSISTENT Hazard at time 1.4250011ms
  Device: On D/A interface X$N04324_DtoA1.N1, "N04324$DtoA"
  See Message ID#912 for probable cause.

DIGITAL Message ID#915 (WARNING):
AMBIGUITY CONVERGENCE Hazard at time 1.4300011ms
  Device: X_U5.U1
  NODEs: N03841$AtoD (IN1),
         N03889 (IN2) => N04324$DtoA (OUT1)  

DIGITAL Message ID#916 (SERIOUS):
PERSISTENT Hazard at time 1.4300011ms
  On D/A Node "N04324$DtoA"
  See Message ID#915 for probable cause.

DIGITAL Message ID#917 (SERIOUS):
PERSISTENT Hazard at time 1.4300011ms
  Device: On D/A interface X$N04324_DtoA1.N1, "N04324$DtoA"
  See Message ID#915 for probable cause.

DIGITAL Message ID#918 (WARNING):
AMBIGUITY CONVERGENCE Hazard at time 1.4350011ms
  Device: X_U5.U1
  NODEs: N03841$AtoD (IN1),
         N03889 (IN2) => N04324$DtoA (OUT1)  

DIGITAL Message ID#919 (SERIOUS):
PERSISTENT Hazard at time 1.4350011ms
  On D/A Node "N04324$DtoA"
  See Message ID#918 for probable cause.

DIGITAL Message ID#920 (SERIOUS):
PERSISTENT Hazard at time 1.4350011ms
  Device: On D/A interface X$N04324_DtoA1.N1, "N04324$DtoA"
  See Message ID#918 for probable cause.

DIGITAL Message ID#921 (WARNING):
AMBIGUITY CONVERGENCE Hazard at time 1.4400011ms
  Device: X_U5.U1
  NODEs: N03841$AtoD (IN1),
         N03889 (IN2) => N04324$DtoA (OUT1)  

DIGITAL Message ID#922 (SERIOUS):
PERSISTENT Hazard at time 1.4400011ms
  On D/A Node "N04324$DtoA"
  See Message ID#921 for probable cause.

DIGITAL Message ID#923 (SERIOUS):
PERSISTENT Hazard at time 1.4400011ms
  Device: On D/A interface X$N04324_DtoA1.N1, "N04324$DtoA"
  See Message ID#921 for probable cause.

DIGITAL Message ID#924 (WARNING):
AMBIGUITY CONVERGENCE Hazard at time 1.4450011ms
  Device: X_U5.U1
  NODEs: N03841$AtoD (IN1),
         N03889 (IN2) => N04324$DtoA (OUT1)  

DIGITAL Message ID#925 (SERIOUS):
PERSISTENT Hazard at time 1.4450011ms
  On D/A Node "N04324$DtoA"
  See Message ID#924 for probable cause.

DIGITAL Message ID#926 (SERIOUS):
PERSISTENT Hazard at time 1.4450011ms
  Device: On D/A interface X$N04324_DtoA1.N1, "N04324$DtoA"
  See Message ID#924 for probable cause.

DIGITAL Message ID#927 (WARNING):
AMBIGUITY CONVERGENCE Hazard at time 1.4500011ms
  Device: X_U5.U1
  NODEs: N03841$AtoD (IN1),
         N03889 (IN2) => N04324$DtoA (OUT1)  

DIGITAL Message ID#928 (SERIOUS):
PERSISTENT Hazard at time 1.4500011ms
  On D/A Node "N04324$DtoA"
  See Message ID#927 for probable cause.

DIGITAL Message ID#929 (SERIOUS):
PERSISTENT Hazard at time 1.4500011ms
  Device: On D/A interface X$N04324_DtoA1.N1, "N04324$DtoA"
  See Message ID#927 for probable cause.

DIGITAL Message ID#930 (WARNING):
AMBIGUITY CONVERGENCE Hazard at time 1.4550011ms
  Device: X_U5.U1
  NODEs: N03841$AtoD (IN1),
         N03889 (IN2) => N04324$DtoA (OUT1)  

DIGITAL Message ID#931 (SERIOUS):
PERSISTENT Hazard at time 1.4550011ms
  On D/A Node "N04324$DtoA"
  See Message ID#930 for probable cause.

DIGITAL Message ID#932 (SERIOUS):
PERSISTENT Hazard at time 1.4550011ms
  Device: On D/A interface X$N04324_DtoA1.N1, "N04324$DtoA"
  See Message ID#930 for probable cause.

DIGITAL Message ID#933 (WARNING):
AMBIGUITY CONVERGENCE Hazard at time 1.4600011ms
  Device: X_U5.U1
  NODEs: N03841$AtoD (IN1),
         N03889 (IN2) => N04324$DtoA (OUT1)  

DIGITAL Message ID#934 (SERIOUS):
PERSISTENT Hazard at time 1.4600011ms
  On D/A Node "N04324$DtoA"
  See Message ID#933 for probable cause.

DIGITAL Message ID#935 (SERIOUS):
PERSISTENT Hazard at time 1.4600011ms
  Device: On D/A interface X$N04324_DtoA1.N1, "N04324$DtoA"
  See Message ID#933 for probable cause.

DIGITAL Message ID#936 (WARNING):
AMBIGUITY CONVERGENCE Hazard at time 1.4650011ms
  Device: X_U5.U1
  NODEs: N03841$AtoD (IN1),
         N03889 (IN2) => N04324$DtoA (OUT1)  

DIGITAL Message ID#937 (SERIOUS):
PERSISTENT Hazard at time 1.4650011ms
  On D/A Node "N04324$DtoA"
  See Message ID#936 for probable cause.

DIGITAL Message ID#938 (SERIOUS):
PERSISTENT Hazard at time 1.4650011ms
  Device: On D/A interface X$N04324_DtoA1.N1, "N04324$DtoA"
  See Message ID#936 for probable cause.

DIGITAL Message ID#939 (WARNING):
AMBIGUITY CONVERGENCE Hazard at time 1.4700011ms
  Device: X_U5.U1
  NODEs: N03841$AtoD (IN1),
         N03889 (IN2) => N04324$DtoA (OUT1)  

DIGITAL Message ID#940 (SERIOUS):
PERSISTENT Hazard at time 1.4700011ms
  On D/A Node "N04324$DtoA"
  See Message ID#939 for probable cause.

DIGITAL Message ID#941 (SERIOUS):
PERSISTENT Hazard at time 1.4700011ms
  Device: On D/A interface X$N04324_DtoA1.N1, "N04324$DtoA"
  See Message ID#939 for probable cause.

DIGITAL Message ID#942 (WARNING):
AMBIGUITY CONVERGENCE Hazard at time 1.4750011ms
  Device: X_U5.U1
  NODEs: N03841$AtoD (IN1),
         N03889 (IN2) => N04324$DtoA (OUT1)  

DIGITAL Message ID#943 (SERIOUS):
PERSISTENT Hazard at time 1.4750011ms
  On D/A Node "N04324$DtoA"
  See Message ID#942 for probable cause.

DIGITAL Message ID#944 (SERIOUS):
PERSISTENT Hazard at time 1.4750011ms
  Device: On D/A interface X$N04324_DtoA1.N1, "N04324$DtoA"
  See Message ID#942 for probable cause.

DIGITAL Message ID#945 (WARNING):
AMBIGUITY CONVERGENCE Hazard at time 1.4800011ms
  Device: X_U5.U1
  NODEs: N03841$AtoD (IN1),
         N03889 (IN2) => N04324$DtoA (OUT1)  

DIGITAL Message ID#946 (SERIOUS):
PERSISTENT Hazard at time 1.4800011ms
  On D/A Node "N04324$DtoA"
  See Message ID#945 for probable cause.

DIGITAL Message ID#947 (SERIOUS):
PERSISTENT Hazard at time 1.4800011ms
  Device: On D/A interface X$N04324_DtoA1.N1, "N04324$DtoA"
  See Message ID#945 for probable cause.

DIGITAL Message ID#948 (WARNING):
AMBIGUITY CONVERGENCE Hazard at time 1.4850011ms
  Device: X_U5.U1
  NODEs: N03841$AtoD (IN1),
         N03889 (IN2) => N04324$DtoA (OUT1)  

DIGITAL Message ID#949 (SERIOUS):
PERSISTENT Hazard at time 1.4850011ms
  On D/A Node "N04324$DtoA"
  See Message ID#948 for probable cause.

DIGITAL Message ID#950 (SERIOUS):
PERSISTENT Hazard at time 1.4850011ms
  Device: On D/A interface X$N04324_DtoA1.N1, "N04324$DtoA"
  See Message ID#948 for probable cause.

DIGITAL Message ID#951 (WARNING):
AMBIGUITY CONVERGENCE Hazard at time 1.4900011ms
  Device: X_U5.U1
  NODEs: N03841$AtoD (IN1),
         N03889 (IN2) => N04324$DtoA (OUT1)  

DIGITAL Message ID#952 (SERIOUS):
PERSISTENT Hazard at time 1.4900011ms
  On D/A Node "N04324$DtoA"
  See Message ID#951 for probable cause.

DIGITAL Message ID#953 (SERIOUS):
PERSISTENT Hazard at time 1.4900011ms
  Device: On D/A interface X$N04324_DtoA1.N1, "N04324$DtoA"
  See Message ID#951 for probable cause.

DIGITAL Message ID#954 (WARNING):
AMBIGUITY CONVERGENCE Hazard at time 1.4950011ms
  Device: X_U5.U1
  NODEs: N03841$AtoD (IN1),
         N03889 (IN2) => N04324$DtoA (OUT1)  

DIGITAL Message ID#955 (SERIOUS):
PERSISTENT Hazard at time 1.4950011ms
  On D/A Node "N04324$DtoA"
  See Message ID#954 for probable cause.

DIGITAL Message ID#956 (SERIOUS):
PERSISTENT Hazard at time 1.4950011ms
  Device: On D/A interface X$N04324_DtoA1.N1, "N04324$DtoA"
  See Message ID#954 for probable cause.


          JOB CONCLUDED

**** 01/02/25 10:55:03 ******* PSpice Lite (March 2016) ******* ID# 10813 ****

 ** Profile: "SCHEMATIC1-Buck"  [ D:\Gopal\orcad\buck-pspicefiles\schematic1\buck.sim ] 


 ****     JOB STATISTICS SUMMARY


******************************************************************************



  License check-out time            =        1.06
  Total job time (using Solver 1)   =        4.02
