
**** 06/18/25 21:10:08 ***** PSpice 24.1.0 (17 April 2025) **** ID# 0 ********

 ** Profile: "SCHEMATIC1-rdg"  [ F:\Gopal_work\Orcad_work\Noise_analysis\random_noise-pspicefiles\schematic1\rdg.sim ] 


 ****     CIRCUIT DESCRIPTION


******************************************************************************




** Creating circuit file "rdg.cir" 
** WARNING: THIS AUTOMATICALLY GENERATED FILE MAY BE OVERWRITTEN BY SUBSEQUENT SIMULATIONS

*Libraries: 
* Profile Libraries :
* Local Libraries :
* From [PSPICE NETLIST] section of C:\Users\Rahul Bhattacharya\AppData\Roaming\SPB_Data\cdssetup\OrCAD_PSpice\24.1.0\PSpice.ini file:
.lib "nom.lib" 

*Analysis directives: 
.DC LIN PARAM SWEEP 1 50 1 
.OPTIONS ADVCONV
.PROBE64 V(alias(*)) I(alias(*)) W(alias(*)) D(alias(*)) NOISE(alias(*)) 
.INC "..\SCHEMATIC1.net" 



**** INCLUDING SCHEMATIC1.net ****
* source RANDOM_NOISE
R_R2         0 WITH_NOISE  1k TC=0,0 
V_V4         CLEAN 0 1
E_E1         WITH_NOISE CLEAN VALUE { (RNDC-0.2)/5 }
.PARAM  sweep=1

**** RESUMING rdg.cir ****
.END


          JOB CONCLUDED

**** 06/18/25 21:10:08 ***** PSpice 24.1.0 (17 April 2025) **** ID# 0 ********

 ** Profile: "SCHEMATIC1-rdg"  [ F:\Gopal_work\Orcad_work\Noise_analysis\random_noise-pspicefiles\schematic1\rdg.sim ] 


 ****     JOB STATISTICS SUMMARY


******************************************************************************



  Total job time (using Solver 1)   =        0.00
