
**** 06/30/25 12:32:51 ***** PSpice 24.1.0 (17 April 2025) **** ID# 0 ********

 ** Profile: "SCHEMATIC1-lea"  [ f:\swati\orcad_projects\leadlag-pspicefiles\schematic1\lea.sim ] 


 ****     CIRCUIT DESCRIPTION


******************************************************************************




** Creating circuit file "lea.cir" 
** WARNING: THIS AUTOMATICALLY GENERATED FILE MAY BE OVERWRITTEN BY SUBSEQUENT SIMULATIONS

*Libraries: 
* Profile Libraries :
* Local Libraries :
* From [PSPICE NETLIST] section of C:\Users\Rahul Bhattacharya\AppData\Roaming\SPB_Data\cdssetup\OrCAD_PSpice\24.1.0\PSpice.ini file:
.lib "nom.lib" 

*Analysis directives: 
.TRAN  0 110ms 0 50us 
.MC 1000 TRAN V([VOUT]) YMAX OUTPUT ALL 
+ SAVEPARAM "F:/SIMRAN_INTERN/mcp_file/lead_1000.mcp"
.OPTIONS ADVCONV
.PROBE64 V(alias(*)) I(alias(*)) W(alias(*)) D(alias(*)) NOISE(alias(*)) 
.INC "..\SCHEMATIC1.net" 



**** INCLUDING SCHEMATIC1.net ****
* source LEADLAG
X_U1         N00326 N00266 V+ V- VOUT uA741
R_R1         VN N00266 R_R1 1k TC=0,0 
.model        R_R1 RES R=1     DEV 5%/5% TC1=0 TC2=0
R_R2         VP N00326 R_R2 10k TC=0,0 
.model        R_R2 RES R=1     DEV 5%/5% TC1=0 TC2=0
R_R3         N00266 VOUT R_R3 10k TC=0,0 
.model        R_R3 RES R=1     DEV 5%/5% TC1=0 TC2=0
C_C1         N00266 VOUT C_C1 0.1595u  TC=0,0 
.model        C_C1 CAP C=1     DEV 5%/5% TC1=0 TC2=0 VC1=0 VC2=0
C_C2         0 N00326 C_C2 1.595u  TC=0,0 
.model        C_C2 CAP C=1     DEV 5%/5% TC1=0 TC2=0 VC1=0 VC2=0
V_V1         V+ 0 12
V_V2         V- 0 -12
V_V3         VN 0  
+SIN 0 0.2 100 0 0 0
V_V4         VP 0  
+SIN 0 0.4 10 0 0 0

**** RESUMING lea.cir ****
.END

**** 06/30/25 12:32:51 ***** PSpice 24.1.0 (17 April 2025) **** ID# 0 ********

 ** Profile: "SCHEMATIC1-lea"  [ f:\swati\orcad_projects\leadlag-pspicefiles\schematic1\lea.sim ] 


 ****     Diode MODEL PARAMETERS


******************************************************************************




               X_U1.dx         X_U1.dy         
          IS  800.000000E-18  800.000000E-18 
          RS    1               1.000000E-03 
         CJO                   10.000000E-12 


**** 06/30/25 12:32:51 ***** PSpice 24.1.0 (17 April 2025) **** ID# 0 ********

 ** Profile: "SCHEMATIC1-lea"  [ f:\swati\orcad_projects\leadlag-pspicefiles\schematic1\lea.sim ] 


 ****     BJT MODEL PARAMETERS


******************************************************************************




               X_U1.qx         
               NPN             
       LEVEL    1            
          IS  800.000000E-18 
          BF   93.75         
          NF    1            
          BR    1            
          NR    1            
         ISS    0            
          RE    0            
          RC    0            
         CJE    0            
         VJE     .75         
         CJC    0            
         VJC     .75         
         MJC     .33         
        XCJC    1            
         CJS    0            
         VJS     .75         
          KF    0            
          AF    1            
          CN    2.42         
           D     .87         


**** 06/30/25 12:32:51 ***** PSpice 24.1.0 (17 April 2025) **** ID# 0 ********

 ** Profile: "SCHEMATIC1-lea"  [ f:\swati\orcad_projects\leadlag-pspicefiles\schematic1\lea.sim ] 


 ****     Resistor MODEL PARAMETERS


******************************************************************************




               R_R1            R_R2            R_R3            
           R    1               1               1            


**** 06/30/25 12:32:51 ***** PSpice 24.1.0 (17 April 2025) **** ID# 0 ********

 ** Profile: "SCHEMATIC1-lea"  [ f:\swati\orcad_projects\leadlag-pspicefiles\schematic1\lea.sim ] 


 ****     Capacitor MODEL PARAMETERS


******************************************************************************




               C_C1            C_C2            
           C    1               1            


**** 06/30/25 12:32:51 ***** PSpice 24.1.0 (17 April 2025) **** ID# 0 ********

 ** Profile: "SCHEMATIC1-lea"  [ f:\swati\orcad_projects\leadlag-pspicefiles\schematic1\lea.sim ] 


 ****     INITIAL TRANSIENT SOLUTION       TEMPERATURE =   27.000 DEG C

                      MONTE CARLO NOMINAL

******************************************************************************



 NODE   VOLTAGE     NODE   VOLTAGE     NODE   VOLTAGE     NODE   VOLTAGE


(   V+)   12.0000  (   V-)  -12.0000  (   VN)    0.0000  (   VP)    0.0000      

( VOUT)    -.0078  (N00266)-777.9E-06 (N00326)-797.3E-06 (X_U1.6) 741.0E-09     

(X_U1.7)    -.0078 (X_U1.8)    -.0078 (X_U1.9)    0.0000 (X_U1.10)    -.6085    

(X_U1.11)   11.9600                   (X_U1.12)   11.9600                       

(X_U1.13)    -.5946                   (X_U1.14)    -.5946                       

(X_U1.53)   11.0000                   (X_U1.54)  -11.0000                       

(X_U1.90)-698.2E-06                   (X_U1.91)   40.0000                       

(X_U1.92)  -40.0000                   (X_U1.99)    0.0000                   




    VOLTAGE SOURCE CURRENTS
    NAME         CURRENT

    V_V1        -1.337E-03
    V_V2         1.337E-03
    V_V3        -7.779E-07
    V_V4        -7.973E-08
    X_U1.vb      7.410E-12
    X_U1.vc      1.101E-11
    X_U1.ve      1.250E-11
    X_U1.vlim   -6.982E-07
    X_U1.vlp    -4.000E-11
    X_U1.vln    -4.000E-11

    TOTAL POWER DISSIPATION   3.21E-02  WATTS


**** 06/30/25 12:32:51 ***** PSpice 24.1.0 (17 April 2025) **** ID# 0 ********

 ** Profile: "SCHEMATIC1-lea"  [ f:\swati\orcad_projects\leadlag-pspicefiles\schematic1\lea.sim ] 


 ****     INITIAL TRANSIENT SOLUTION       TEMPERATURE =   27.000 DEG C

                      MONTE CARLO PASS 2

******************************************************************************



 NODE   VOLTAGE     NODE   VOLTAGE     NODE   VOLTAGE     NODE   VOLTAGE


(   V+)   12.0000  (   V-)  -12.0000  (   VN)    0.0000  (   VP)    0.0000      

( VOUT)    -.0078  (N00266)-808.7E-06 (N00326)-828.0E-06 (X_U1.6) 745.7E-09     

(X_U1.7)    -.0078 (X_U1.8)    -.0078 (X_U1.9)    0.0000 (X_U1.10)    -.6085    

(X_U1.11)   11.9600                   (X_U1.12)   11.9600                       

(X_U1.13)    -.5946                   (X_U1.14)    -.5946                       

(X_U1.53)   11.0000                   (X_U1.54)  -11.0000                       

(X_U1.90)-718.0E-06                   (X_U1.91)   40.0000                       

(X_U1.92)  -40.0000                   (X_U1.99)    0.0000                   




    VOLTAGE SOURCE CURRENTS
    NAME         CURRENT

    V_V1        -1.337E-03
    V_V2         1.337E-03
    V_V3        -7.977E-07
    V_V4        -7.973E-08
    X_U1.vb      7.457E-12
    X_U1.vc      1.101E-11
    X_U1.ve      1.250E-11
    X_U1.vlim   -7.180E-07
    X_U1.vlp    -4.000E-11
    X_U1.vln    -4.000E-11

    TOTAL POWER DISSIPATION   3.21E-02  WATTS


**** 06/30/25 12:32:51 ***** PSpice 24.1.0 (17 April 2025) **** ID# 0 ********

 ** Profile: "SCHEMATIC1-lea"  [ f:\swati\orcad_projects\leadlag-pspicefiles\schematic1\lea.sim ] 


 ****     INITIAL TRANSIENT SOLUTION       TEMPERATURE =   27.000 DEG C

                      MONTE CARLO PASS 3

******************************************************************************



 NODE   VOLTAGE     NODE   VOLTAGE     NODE   VOLTAGE     NODE   VOLTAGE


(   V+)   12.0000  (   V-)  -12.0000  (   VN)    0.0000  (   VP)    0.0000      

( VOUT)    -.0075  (N00266)-791.3E-06 (N00326)-810.6E-06 (X_U1.6) 715.1E-09     

(X_U1.7)    -.0075 (X_U1.8)    -.0075 (X_U1.9)    0.0000 (X_U1.10)    -.6085    

(X_U1.11)   11.9600                   (X_U1.12)   11.9600                       

(X_U1.13)    -.5946                   (X_U1.14)    -.5946                       

(X_U1.53)   11.0000                   (X_U1.54)  -11.0000                       

(X_U1.90)-681.2E-06                   (X_U1.91)   40.0000                       

(X_U1.92)  -40.0000                   (X_U1.99)    0.0000                   




    VOLTAGE SOURCE CURRENTS
    NAME         CURRENT

    V_V1        -1.337E-03
    V_V2         1.337E-03
    V_V3        -7.609E-07
    V_V4        -7.973E-08
    X_U1.vb      7.151E-12
    X_U1.vc      1.101E-11
    X_U1.ve      1.250E-11
    X_U1.vlim   -6.812E-07
    X_U1.vlp    -4.000E-11
    X_U1.vln    -4.000E-11

    TOTAL POWER DISSIPATION   3.21E-02  WATTS


**** 06/30/25 12:32:51 ***** PSpice 24.1.0 (17 April 2025) **** ID# 0 ********

 ** Profile: "SCHEMATIC1-lea"  [ f:\swati\orcad_projects\leadlag-pspicefiles\schematic1\lea.sim ] 


 ****     INITIAL TRANSIENT SOLUTION       TEMPERATURE =   27.000 DEG C

                      MONTE CARLO PASS 4

******************************************************************************



 NODE   VOLTAGE     NODE   VOLTAGE     NODE   VOLTAGE     NODE   VOLTAGE


(   V+)   12.0000  (   V-)  -12.0000  (   VN)    0.0000  (   VP)    0.0000      

( VOUT)    -.0077  (N00266)-773.7E-06 (N00326)-793.0E-06 (X_U1.6) 733.7E-09     

(X_U1.7)    -.0077 (X_U1.8)    -.0077 (X_U1.9)    0.0000 (X_U1.10)    -.6085    

(X_U1.11)   11.9600                   (X_U1.12)   11.9600                       

(X_U1.13)    -.5946                   (X_U1.14)    -.5946                       

(X_U1.53)   11.0000                   (X_U1.54)  -11.0000                       

(X_U1.90)-675.8E-06                   (X_U1.91)   40.0000                       

(X_U1.92)  -40.0000                   (X_U1.99)    0.0000                   




    VOLTAGE SOURCE CURRENTS
    NAME         CURRENT

    V_V1        -1.337E-03
    V_V2         1.337E-03
    V_V3        -7.556E-07
    V_V4        -7.973E-08
    X_U1.vb      7.337E-12
    X_U1.vc      1.101E-11
    X_U1.ve      1.250E-11
    X_U1.vlim   -6.758E-07
    X_U1.vlp    -4.000E-11
    X_U1.vln    -4.000E-11

    TOTAL POWER DISSIPATION   3.21E-02  WATTS


**** 06/30/25 12:32:51 ***** PSpice 24.1.0 (17 April 2025) **** ID# 0 ********

 ** Profile: "SCHEMATIC1-lea"  [ f:\swati\orcad_projects\leadlag-pspicefiles\schematic1\lea.sim ] 


 ****     INITIAL TRANSIENT SOLUTION       TEMPERATURE =   27.000 DEG C

                      MONTE CARLO PASS 5

******************************************************************************



 NODE   VOLTAGE     NODE   VOLTAGE     NODE   VOLTAGE     NODE   VOLTAGE


(   V+)   12.0000  (   V-)  -12.0000  (   VN)    0.0000  (   VP)    0.0000      

( VOUT)    -.0080  (N00266)-772.8E-06 (N00326)-792.1E-06 (X_U1.6) 762.7E-09     

(X_U1.7)    -.0080 (X_U1.8)    -.0080 (X_U1.9)    0.0000 (X_U1.10)    -.6085    

(X_U1.11)   11.9600                   (X_U1.12)   11.9600                       

(X_U1.13)    -.5946                   (X_U1.14)    -.5946                       

(X_U1.53)   11.0000                   (X_U1.54)  -11.0000                       

(X_U1.90)-726.2E-06                   (X_U1.91)   40.0000                       

(X_U1.92)  -40.0000                   (X_U1.99)    0.0000                   




    VOLTAGE SOURCE CURRENTS
    NAME         CURRENT

    V_V1        -1.337E-03
    V_V2         1.337E-03
    V_V3        -8.059E-07
    V_V4        -7.973E-08
    X_U1.vb      7.627E-12
    X_U1.vc      1.101E-11
    X_U1.ve      1.250E-11
    X_U1.vlim   -7.262E-07
    X_U1.vlp    -4.000E-11
    X_U1.vln    -4.000E-11

    TOTAL POWER DISSIPATION   3.21E-02  WATTS


**** 06/30/25 12:32:51 ***** PSpice 24.1.0 (17 April 2025) **** ID# 0 ********

 ** Profile: "SCHEMATIC1-lea"  [ f:\swati\orcad_projects\leadlag-pspicefiles\schematic1\lea.sim ] 


 ****     INITIAL TRANSIENT SOLUTION       TEMPERATURE =   27.000 DEG C

                      MONTE CARLO PASS 6

******************************************************************************



 NODE   VOLTAGE     NODE   VOLTAGE     NODE   VOLTAGE     NODE   VOLTAGE


(   V+)   12.0000  (   V-)  -12.0000  (   VN)    0.0000  (   VP)    0.0000      

( VOUT)    -.0080  (N00266)-778.8E-06 (N00326)-798.1E-06 (X_U1.6) 758.9E-09     

(X_U1.7)    -.0080 (X_U1.8)    -.0080 (X_U1.9)    0.0000 (X_U1.10)    -.6085    

(X_U1.11)   11.9600                   (X_U1.12)   11.9600                       

(X_U1.13)    -.5946                   (X_U1.14)    -.5946                       

(X_U1.53)   11.0000                   (X_U1.54)  -11.0000                       

(X_U1.90)-684.7E-06                   (X_U1.91)   40.0000                       

(X_U1.92)  -40.0000                   (X_U1.99)    0.0000                   




    VOLTAGE SOURCE CURRENTS
    NAME         CURRENT

    V_V1        -1.337E-03
    V_V2         1.337E-03
    V_V3        -7.645E-07
    V_V4        -7.973E-08
    X_U1.vb      7.589E-12
    X_U1.vc      1.101E-11
    X_U1.ve      1.250E-11
    X_U1.vlim   -6.847E-07
    X_U1.vlp    -4.000E-11
    X_U1.vln    -4.000E-11

    TOTAL POWER DISSIPATION   3.21E-02  WATTS


**** 06/30/25 12:32:51 ***** PSpice 24.1.0 (17 April 2025) **** ID# 0 ********

 ** Profile: "SCHEMATIC1-lea"  [ f:\swati\orcad_projects\leadlag-pspicefiles\schematic1\lea.sim ] 


 ****     INITIAL TRANSIENT SOLUTION       TEMPERATURE =   27.000 DEG C

                      MONTE CARLO PASS 7

******************************************************************************



 NODE   VOLTAGE     NODE   VOLTAGE     NODE   VOLTAGE     NODE   VOLTAGE


(   V+)   12.0000  (   V-)  -12.0000  (   VN)    0.0000  (   VP)    0.0000      

( VOUT)    -.0079  (N00266)-796.2E-06 (N00326)-815.5E-06 (X_U1.6) 751.8E-09     

(X_U1.7)    -.0079 (X_U1.8)    -.0079 (X_U1.9)    0.0000 (X_U1.10)    -.6085    

(X_U1.11)   11.9600                   (X_U1.12)   11.9600                       

(X_U1.13)    -.5946                   (X_U1.14)    -.5946                       

(X_U1.53)   11.0000                   (X_U1.54)  -11.0000                       

(X_U1.90)-702.1E-06                   (X_U1.91)   40.0000                       

(X_U1.92)  -40.0000                   (X_U1.99)    0.0000                   




    VOLTAGE SOURCE CURRENTS
    NAME         CURRENT

    V_V1        -1.337E-03
    V_V2         1.337E-03
    V_V3        -7.819E-07
    V_V4        -7.973E-08
    X_U1.vb      7.518E-12
    X_U1.vc      1.101E-11
    X_U1.ve      1.250E-11
    X_U1.vlim   -7.021E-07
    X_U1.vlp    -4.000E-11
    X_U1.vln    -4.000E-11

    TOTAL POWER DISSIPATION   3.21E-02  WATTS


**** 06/30/25 12:32:51 ***** PSpice 24.1.0 (17 April 2025) **** ID# 0 ********

 ** Profile: "SCHEMATIC1-lea"  [ f:\swati\orcad_projects\leadlag-pspicefiles\schematic1\lea.sim ] 


 ****     INITIAL TRANSIENT SOLUTION       TEMPERATURE =   27.000 DEG C

                      MONTE CARLO PASS 8

******************************************************************************



 NODE   VOLTAGE     NODE   VOLTAGE     NODE   VOLTAGE     NODE   VOLTAGE


(   V+)   12.0000  (   V-)  -12.0000  (   VN)    0.0000  (   VP)    0.0000      

( VOUT)    -.0075  (N00266)-789.9E-06 (N00326)-809.2E-06 (X_U1.6) 717.9E-09     

(X_U1.7)    -.0076 (X_U1.8)    -.0076 (X_U1.9)    0.0000 (X_U1.10)    -.6085    

(X_U1.11)   11.9600                   (X_U1.12)   11.9600                       

(X_U1.13)    -.5946                   (X_U1.14)    -.5946                       

(X_U1.53)   11.0000                   (X_U1.54)  -11.0000                       

(X_U1.90)-683.8E-06                   (X_U1.91)   40.0000                       

(X_U1.92)  -40.0000                   (X_U1.99)    0.0000                   




    VOLTAGE SOURCE CURRENTS
    NAME         CURRENT

    V_V1        -1.337E-03
    V_V2         1.337E-03
    V_V3        -7.635E-07
    V_V4        -7.973E-08
    X_U1.vb      7.179E-12
    X_U1.vc      1.101E-11
    X_U1.ve      1.250E-11
    X_U1.vlim   -6.838E-07
    X_U1.vlp    -4.000E-11
    X_U1.vln    -4.000E-11

    TOTAL POWER DISSIPATION   3.21E-02  WATTS


**** 06/30/25 12:32:51 ***** PSpice 24.1.0 (17 April 2025) **** ID# 0 ********

 ** Profile: "SCHEMATIC1-lea"  [ f:\swati\orcad_projects\leadlag-pspicefiles\schematic1\lea.sim ] 


 ****     INITIAL TRANSIENT SOLUTION       TEMPERATURE =   27.000 DEG C

                      MONTE CARLO PASS 9

******************************************************************************



 NODE   VOLTAGE     NODE   VOLTAGE     NODE   VOLTAGE     NODE   VOLTAGE


(   V+)   12.0000  (   V-)  -12.0000  (   VN)    0.0000  (   VP)    0.0000      

( VOUT)    -.0079  (N00266)-766.8E-06 (N00326)-786.2E-06 (X_U1.6) 754.6E-09     

(X_U1.7)    -.0079 (X_U1.8)    -.0079 (X_U1.9)    0.0000 (X_U1.10)    -.6084    

(X_U1.11)   11.9600                   (X_U1.12)   11.9600                       

(X_U1.13)    -.5946                   (X_U1.14)    -.5946                       

(X_U1.53)   11.0000                   (X_U1.54)  -11.0000                       

(X_U1.90)-693.3E-06                   (X_U1.91)   40.0000                       

(X_U1.92)  -40.0000                   (X_U1.99)    0.0000                   




    VOLTAGE SOURCE CURRENTS
    NAME         CURRENT

    V_V1        -1.337E-03
    V_V2         1.337E-03
    V_V3        -7.730E-07
    V_V4        -7.973E-08
    X_U1.vb      7.546E-12
    X_U1.vc      1.101E-11
    X_U1.ve      1.250E-11
    X_U1.vlim   -6.933E-07
    X_U1.vlp    -4.000E-11
    X_U1.vln    -4.000E-11

    TOTAL POWER DISSIPATION   3.21E-02  WATTS


**** 06/30/25 12:32:51 ***** PSpice 24.1.0 (17 April 2025) **** ID# 0 ********

 ** Profile: "SCHEMATIC1-lea"  [ f:\swati\orcad_projects\leadlag-pspicefiles\schematic1\lea.sim ] 


 ****     INITIAL TRANSIENT SOLUTION       TEMPERATURE =   27.000 DEG C

                      MONTE CARLO PASS 10

******************************************************************************



 NODE   VOLTAGE     NODE   VOLTAGE     NODE   VOLTAGE     NODE   VOLTAGE


(   V+)   12.0000  (   V-)  -12.0000  (   VN)    0.0000  (   VP)    0.0000      

( VOUT)    -.0078  (N00266)-802.6E-06 (N00326)-821.9E-06 (X_U1.6) 743.4E-09     

(X_U1.7)    -.0078 (X_U1.8)    -.0078 (X_U1.9)    0.0000 (X_U1.10)    -.6085    

(X_U1.11)   11.9600                   (X_U1.12)   11.9600                       

(X_U1.13)    -.5946                   (X_U1.14)    -.5946                       

(X_U1.53)   11.0000                   (X_U1.54)  -11.0000                       

(X_U1.90)-711.0E-06                   (X_U1.91)   40.0000                       

(X_U1.92)  -40.0000                   (X_U1.99)    0.0000                   




    VOLTAGE SOURCE CURRENTS
    NAME         CURRENT

    V_V1        -1.337E-03
    V_V2         1.337E-03
    V_V3        -7.908E-07
    V_V4        -7.973E-08
    X_U1.vb      7.434E-12
    X_U1.vc      1.101E-11
    X_U1.ve      1.250E-11
    X_U1.vlim   -7.110E-07
    X_U1.vlp    -4.000E-11
    X_U1.vln    -4.000E-11

    TOTAL POWER DISSIPATION   3.21E-02  WATTS


**** 06/30/25 12:32:51 ***** PSpice 24.1.0 (17 April 2025) **** ID# 0 ********

 ** Profile: "SCHEMATIC1-lea"  [ f:\swati\orcad_projects\leadlag-pspicefiles\schematic1\lea.sim ] 


 ****     INITIAL TRANSIENT SOLUTION       TEMPERATURE =   27.000 DEG C

                      MONTE CARLO PASS 11

******************************************************************************



 NODE   VOLTAGE     NODE   VOLTAGE     NODE   VOLTAGE     NODE   VOLTAGE


(   V+)   12.0000  (   V-)  -12.0000  (   VN)    0.0000  (   VP)    0.0000      

( VOUT)    -.0079  (N00266)-767.6E-06 (N00326)-787.0E-06 (X_U1.6) 751.7E-09     

(X_U1.7)    -.0079 (X_U1.8)    -.0079 (X_U1.9)    0.0000 (X_U1.10)    -.6084    

(X_U1.11)   11.9600                   (X_U1.12)   11.9600                       

(X_U1.13)    -.5946                   (X_U1.14)    -.5946                       

(X_U1.53)   11.0000                   (X_U1.54)  -11.0000                       

(X_U1.90)-717.3E-06                   (X_U1.91)   40.0000                       

(X_U1.92)  -40.0000                   (X_U1.99)    0.0000                   




    VOLTAGE SOURCE CURRENTS
    NAME         CURRENT

    V_V1        -1.337E-03
    V_V2         1.337E-03
    V_V3        -7.971E-07
    V_V4        -7.973E-08
    X_U1.vb      7.517E-12
    X_U1.vc      1.101E-11
    X_U1.ve      1.250E-11
    X_U1.vlim   -7.173E-07
    X_U1.vlp    -4.000E-11
    X_U1.vln    -4.000E-11

    TOTAL POWER DISSIPATION   3.21E-02  WATTS


**** 06/30/25 12:32:51 ***** PSpice 24.1.0 (17 April 2025) **** ID# 0 ********

 ** Profile: "SCHEMATIC1-lea"  [ f:\swati\orcad_projects\leadlag-pspicefiles\schematic1\lea.sim ] 


 ****     INITIAL TRANSIENT SOLUTION       TEMPERATURE =   27.000 DEG C

                      MONTE CARLO PASS 12

******************************************************************************



 NODE   VOLTAGE     NODE   VOLTAGE     NODE   VOLTAGE     NODE   VOLTAGE


(   V+)   12.0000  (   V-)  -12.0000  (   VN)    0.0000  (   VP)    0.0000      

( VOUT)    -.0077  (N00266)-762.6E-06 (N00326)-781.9E-06 (X_U1.6) 734.0E-09     

(X_U1.7)    -.0077 (X_U1.8)    -.0077 (X_U1.9)    0.0000 (X_U1.10)    -.6084    

(X_U1.11)   11.9600                   (X_U1.12)   11.9600                       

(X_U1.13)    -.5946                   (X_U1.14)    -.5946                       

(X_U1.53)   11.0000                   (X_U1.54)  -11.0000                       

(X_U1.90)-675.5E-06                   (X_U1.91)   40.0000                       

(X_U1.92)  -40.0000                   (X_U1.99)    0.0000                   




    VOLTAGE SOURCE CURRENTS
    NAME         CURRENT

    V_V1        -1.337E-03
    V_V2         1.337E-03
    V_V3        -7.552E-07
    V_V4        -7.973E-08
    X_U1.vb      7.340E-12
    X_U1.vc      1.101E-11
    X_U1.ve      1.250E-11
    X_U1.vlim   -6.755E-07
    X_U1.vlp    -4.000E-11
    X_U1.vln    -4.000E-11

    TOTAL POWER DISSIPATION   3.21E-02  WATTS


**** 06/30/25 12:32:51 ***** PSpice 24.1.0 (17 April 2025) **** ID# 0 ********

 ** Profile: "SCHEMATIC1-lea"  [ f:\swati\orcad_projects\leadlag-pspicefiles\schematic1\lea.sim ] 


 ****     INITIAL TRANSIENT SOLUTION       TEMPERATURE =   27.000 DEG C

                      MONTE CARLO PASS 13

******************************************************************************



 NODE   VOLTAGE     NODE   VOLTAGE     NODE   VOLTAGE     NODE   VOLTAGE


(   V+)   12.0000  (   V-)  -12.0000  (   VN)    0.0000  (   VP)    0.0000      

( VOUT)    -.0082  (N00266)-785.3E-06 (N00326)-804.7E-06 (X_U1.6) 781.3E-09     

(X_U1.7)    -.0082 (X_U1.8)    -.0082 (X_U1.9)    0.0000 (X_U1.10)    -.6085    

(X_U1.11)   11.9600                   (X_U1.12)   11.9600                       

(X_U1.13)    -.5946                   (X_U1.14)    -.5946                       

(X_U1.53)   11.0000                   (X_U1.54)  -11.0000                       

(X_U1.90)-734.2E-06                   (X_U1.91)   40.0000                       

(X_U1.92)  -40.0000                   (X_U1.99)    0.0000                   




    VOLTAGE SOURCE CURRENTS
    NAME         CURRENT

    V_V1        -1.337E-03
    V_V2         1.337E-03
    V_V3        -8.140E-07
    V_V4        -7.973E-08
    X_U1.vb      7.813E-12
    X_U1.vc      1.101E-11
    X_U1.ve      1.250E-11
    X_U1.vlim   -7.342E-07
    X_U1.vlp    -4.000E-11
    X_U1.vln    -4.000E-11

    TOTAL POWER DISSIPATION   3.21E-02  WATTS


**** 06/30/25 12:32:51 ***** PSpice 24.1.0 (17 April 2025) **** ID# 0 ********

 ** Profile: "SCHEMATIC1-lea"  [ f:\swati\orcad_projects\leadlag-pspicefiles\schematic1\lea.sim ] 


 ****     INITIAL TRANSIENT SOLUTION       TEMPERATURE =   27.000 DEG C

                      MONTE CARLO PASS 14

******************************************************************************



 NODE   VOLTAGE     NODE   VOLTAGE     NODE   VOLTAGE     NODE   VOLTAGE


(   V+)   12.0000  (   V-)  -12.0000  (   VN)    0.0000  (   VP)    0.0000      

( VOUT)    -.0071  (N00266)-751.8E-06 (N00326)-771.1E-06 (X_U1.6) 675.8E-09     

(X_U1.7)    -.0071 (X_U1.8)    -.0071 (X_U1.9)    0.0000 (X_U1.10)    -.6084    

(X_U1.11)   11.9600                   (X_U1.12)   11.9600                       

(X_U1.13)    -.5946                   (X_U1.14)    -.5946                       

(X_U1.53)   11.0000                   (X_U1.54)  -11.0000                       

(X_U1.90)-639.2E-06                   (X_U1.91)   40.0000                       

(X_U1.92)  -40.0000                   (X_U1.99)    0.0000                   




    VOLTAGE SOURCE CURRENTS
    NAME         CURRENT

    V_V1        -1.337E-03
    V_V2         1.337E-03
    V_V3        -7.190E-07
    V_V4        -7.973E-08
    X_U1.vb      6.758E-12
    X_U1.vc      1.101E-11
    X_U1.ve      1.250E-11
    X_U1.vlim   -6.392E-07
    X_U1.vlp    -4.000E-11
    X_U1.vln    -4.000E-11

    TOTAL POWER DISSIPATION   3.21E-02  WATTS


**** 06/30/25 12:32:51 ***** PSpice 24.1.0 (17 April 2025) **** ID# 0 ********

 ** Profile: "SCHEMATIC1-lea"  [ f:\swati\orcad_projects\leadlag-pspicefiles\schematic1\lea.sim ] 


 ****     INITIAL TRANSIENT SOLUTION       TEMPERATURE =   27.000 DEG C

                      MONTE CARLO PASS 15

******************************************************************************



 NODE   VOLTAGE     NODE   VOLTAGE     NODE   VOLTAGE     NODE   VOLTAGE


(   V+)   12.0000  (   V-)  -12.0000  (   VN)    0.0000  (   VP)    0.0000      

( VOUT)    -.0076  (N00266)-795.3E-06 (N00326)-814.6E-06 (X_U1.6) 725.6E-09     

(X_U1.7)    -.0076 (X_U1.8)    -.0076 (X_U1.9)    0.0000 (X_U1.10)    -.6085    

(X_U1.11)   11.9600                   (X_U1.12)   11.9600                       

(X_U1.13)    -.5946                   (X_U1.14)    -.5946                       

(X_U1.53)   11.0000                   (X_U1.54)  -11.0000                       

(X_U1.90)-700.4E-06                   (X_U1.91)   40.0000                       

(X_U1.92)  -40.0000                   (X_U1.99)    0.0000                   




    VOLTAGE SOURCE CURRENTS
    NAME         CURRENT

    V_V1        -1.337E-03
    V_V2         1.337E-03
    V_V3        -7.802E-07
    V_V4        -7.973E-08
    X_U1.vb      7.256E-12
    X_U1.vc      1.101E-11
    X_U1.ve      1.250E-11
    X_U1.vlim   -7.004E-07
    X_U1.vlp    -4.000E-11
    X_U1.vln    -4.000E-11

    TOTAL POWER DISSIPATION   3.21E-02  WATTS


**** 06/30/25 12:32:51 ***** PSpice 24.1.0 (17 April 2025) **** ID# 0 ********

 ** Profile: "SCHEMATIC1-lea"  [ f:\swati\orcad_projects\leadlag-pspicefiles\schematic1\lea.sim ] 


 ****     INITIAL TRANSIENT SOLUTION       TEMPERATURE =   27.000 DEG C

                      MONTE CARLO PASS 16

******************************************************************************



 NODE   VOLTAGE     NODE   VOLTAGE     NODE   VOLTAGE     NODE   VOLTAGE


(   V+)   12.0000  (   V-)  -12.0000  (   VN)    0.0000  (   VP)    0.0000      

( VOUT)    -.0075  (N00266)-790.5E-06 (N00326)-809.9E-06 (X_U1.6) 716.6E-09     

(X_U1.7)    -.0075 (X_U1.8)    -.0075 (X_U1.9)    0.0000 (X_U1.10)    -.6085    

(X_U1.11)   11.9600                   (X_U1.12)   11.9600                       

(X_U1.13)    -.5946                   (X_U1.14)    -.5946                       

(X_U1.53)   11.0000                   (X_U1.54)  -11.0000                       

(X_U1.90)-706.1E-06                   (X_U1.91)   40.0000                       

(X_U1.92)  -40.0000                   (X_U1.99)    0.0000                   




    VOLTAGE SOURCE CURRENTS
    NAME         CURRENT

    V_V1        -1.337E-03
    V_V2         1.337E-03
    V_V3        -7.858E-07
    V_V4        -7.973E-08
    X_U1.vb      7.166E-12
    X_U1.vc      1.101E-11
    X_U1.ve      1.250E-11
    X_U1.vlim   -7.061E-07
    X_U1.vlp    -4.000E-11
    X_U1.vln    -4.000E-11

    TOTAL POWER DISSIPATION   3.21E-02  WATTS


**** 06/30/25 12:32:51 ***** PSpice 24.1.0 (17 April 2025) **** ID# 0 ********

 ** Profile: "SCHEMATIC1-lea"  [ f:\swati\orcad_projects\leadlag-pspicefiles\schematic1\lea.sim ] 


 ****     INITIAL TRANSIENT SOLUTION       TEMPERATURE =   27.000 DEG C

                      MONTE CARLO PASS 17

******************************************************************************



 NODE   VOLTAGE     NODE   VOLTAGE     NODE   VOLTAGE     NODE   VOLTAGE


(   V+)   12.0000  (   V-)  -12.0000  (   VN)    0.0000  (   VP)    0.0000      

( VOUT)    -.0078  (N00266)-748.4E-06 (N00326)-767.7E-06 (X_U1.6) 746.2E-09     

(X_U1.7)    -.0079 (X_U1.8)    -.0079 (X_U1.9)    0.0000 (X_U1.10)    -.6084    

(X_U1.11)   11.9600                   (X_U1.12)   11.9600                       

(X_U1.13)    -.5946                   (X_U1.14)    -.5946                       

(X_U1.53)   11.0000                   (X_U1.54)  -11.0000                       

(X_U1.90)-682.8E-06                   (X_U1.91)   40.0000                       

(X_U1.92)  -40.0000                   (X_U1.99)    0.0000                   




    VOLTAGE SOURCE CURRENTS
    NAME         CURRENT

    V_V1        -1.337E-03
    V_V2         1.337E-03
    V_V3        -7.626E-07
    V_V4        -7.973E-08
    X_U1.vb      7.462E-12
    X_U1.vc      1.101E-11
    X_U1.ve      1.250E-11
    X_U1.vlim   -6.828E-07
    X_U1.vlp    -4.000E-11
    X_U1.vln    -4.000E-11

    TOTAL POWER DISSIPATION   3.21E-02  WATTS


**** 06/30/25 12:32:51 ***** PSpice 24.1.0 (17 April 2025) **** ID# 0 ********

 ** Profile: "SCHEMATIC1-lea"  [ f:\swati\orcad_projects\leadlag-pspicefiles\schematic1\lea.sim ] 


 ****     INITIAL TRANSIENT SOLUTION       TEMPERATURE =   27.000 DEG C

                      MONTE CARLO PASS 18

******************************************************************************



 NODE   VOLTAGE     NODE   VOLTAGE     NODE   VOLTAGE     NODE   VOLTAGE


(   V+)   12.0000  (   V-)  -12.0000  (   VN)    0.0000  (   VP)    0.0000      

( VOUT)    -.0084  (N00266)-814.0E-06 (N00326)-833.3E-06 (X_U1.6) 806.0E-09     

(X_U1.7)    -.0085 (X_U1.8)    -.0085 (X_U1.9)    0.0000 (X_U1.10)    -.6085    

(X_U1.11)   11.9600                   (X_U1.12)   11.9600                       

(X_U1.13)    -.5946                   (X_U1.14)    -.5946                       

(X_U1.53)   11.0000                   (X_U1.54)  -11.0000                       

(X_U1.90)-733.2E-06                   (X_U1.91)   40.0000                       

(X_U1.92)  -40.0000                   (X_U1.99)    0.0000                   




    VOLTAGE SOURCE CURRENTS
    NAME         CURRENT

    V_V1        -1.337E-03
    V_V2         1.337E-03
    V_V3        -8.130E-07
    V_V4        -7.973E-08
    X_U1.vb      8.060E-12
    X_U1.vc      1.101E-11
    X_U1.ve      1.250E-11
    X_U1.vlim   -7.332E-07
    X_U1.vlp    -4.000E-11
    X_U1.vln    -4.000E-11

    TOTAL POWER DISSIPATION   3.21E-02  WATTS


**** 06/30/25 12:32:51 ***** PSpice 24.1.0 (17 April 2025) **** ID# 0 ********

 ** Profile: "SCHEMATIC1-lea"  [ f:\swati\orcad_projects\leadlag-pspicefiles\schematic1\lea.sim ] 


 ****     INITIAL TRANSIENT SOLUTION       TEMPERATURE =   27.000 DEG C

                      MONTE CARLO PASS 19

******************************************************************************



 NODE   VOLTAGE     NODE   VOLTAGE     NODE   VOLTAGE     NODE   VOLTAGE


(   V+)   12.0000  (   V-)  -12.0000  (   VN)    0.0000  (   VP)    0.0000      

( VOUT)    -.0079  (N00266)-792.2E-06 (N00326)-811.6E-06 (X_U1.6) 750.0E-09     

(X_U1.7)    -.0079 (X_U1.8)    -.0079 (X_U1.9)    0.0000 (X_U1.10)    -.6085    

(X_U1.11)   11.9600                   (X_U1.12)   11.9600                       

(X_U1.13)    -.5946                   (X_U1.14)    -.5946                       

(X_U1.53)   11.0000                   (X_U1.54)  -11.0000                       

(X_U1.90)-699.2E-06                   (X_U1.91)   40.0000                       

(X_U1.92)  -40.0000                   (X_U1.99)    0.0000                   




    VOLTAGE SOURCE CURRENTS
    NAME         CURRENT

    V_V1        -1.337E-03
    V_V2         1.337E-03
    V_V3        -7.790E-07
    V_V4        -7.973E-08
    X_U1.vb      7.500E-12
    X_U1.vc      1.101E-11
    X_U1.ve      1.250E-11
    X_U1.vlim   -6.992E-07
    X_U1.vlp    -4.000E-11
    X_U1.vln    -4.000E-11

    TOTAL POWER DISSIPATION   3.21E-02  WATTS


**** 06/30/25 12:32:51 ***** PSpice 24.1.0 (17 April 2025) **** ID# 0 ********

 ** Profile: "SCHEMATIC1-lea"  [ f:\swati\orcad_projects\leadlag-pspicefiles\schematic1\lea.sim ] 


 ****     INITIAL TRANSIENT SOLUTION       TEMPERATURE =   27.000 DEG C

                      MONTE CARLO PASS 20

******************************************************************************



 NODE   VOLTAGE     NODE   VOLTAGE     NODE   VOLTAGE     NODE   VOLTAGE


(   V+)   12.0000  (   V-)  -12.0000  (   VN)    0.0000  (   VP)    0.0000      

( VOUT)    -.0078  (N00266)-814.2E-06 (N00326)-833.5E-06 (X_U1.6) 748.4E-09     

(X_U1.7)    -.0079 (X_U1.8)    -.0079 (X_U1.9)    0.0000 (X_U1.10)    -.6085    

(X_U1.11)   11.9600                   (X_U1.12)   11.9600                       

(X_U1.13)    -.5946                   (X_U1.14)    -.5946                       

(X_U1.53)   11.0000                   (X_U1.54)  -11.0000                       

(X_U1.90)-710.9E-06                   (X_U1.91)   40.0000                       

(X_U1.92)  -40.0000                   (X_U1.99)    0.0000                   




    VOLTAGE SOURCE CURRENTS
    NAME         CURRENT

    V_V1        -1.337E-03
    V_V2         1.337E-03
    V_V3        -7.907E-07
    V_V4        -7.973E-08
    X_U1.vb      7.484E-12
    X_U1.vc      1.101E-11
    X_U1.ve      1.250E-11
    X_U1.vlim   -7.109E-07
    X_U1.vlp    -4.000E-11
    X_U1.vln    -4.000E-11

    TOTAL POWER DISSIPATION   3.21E-02  WATTS


**** 06/30/25 12:32:51 ***** PSpice 24.1.0 (17 April 2025) **** ID# 0 ********

 ** Profile: "SCHEMATIC1-lea"  [ f:\swati\orcad_projects\leadlag-pspicefiles\schematic1\lea.sim ] 


 ****     INITIAL TRANSIENT SOLUTION       TEMPERATURE =   27.000 DEG C

                      MONTE CARLO PASS 21

******************************************************************************



 NODE   VOLTAGE     NODE   VOLTAGE     NODE   VOLTAGE     NODE   VOLTAGE


(   V+)   12.0000  (   V-)  -12.0000  (   VN)    0.0000  (   VP)    0.0000      

( VOUT)    -.0081  (N00266)-772.5E-06 (N00326)-791.8E-06 (X_U1.6) 769.9E-09     

(X_U1.7)    -.0081 (X_U1.8)    -.0081 (X_U1.9)    0.0000 (X_U1.10)    -.6085    

(X_U1.11)   11.9600                   (X_U1.12)   11.9600                       

(X_U1.13)    -.5946                   (X_U1.14)    -.5946                       

(X_U1.53)   11.0000                   (X_U1.54)  -11.0000                       

(X_U1.90)-722.2E-06                   (X_U1.91)   40.0000                       

(X_U1.92)  -40.0000                   (X_U1.99)    0.0000                   




    VOLTAGE SOURCE CURRENTS
    NAME         CURRENT

    V_V1        -1.337E-03
    V_V2         1.337E-03
    V_V3        -8.019E-07
    V_V4        -7.973E-08
    X_U1.vb      7.699E-12
    X_U1.vc      1.101E-11
    X_U1.ve      1.250E-11
    X_U1.vlim   -7.222E-07
    X_U1.vlp    -4.000E-11
    X_U1.vln    -4.000E-11

    TOTAL POWER DISSIPATION   3.21E-02  WATTS


**** 06/30/25 12:32:51 ***** PSpice 24.1.0 (17 April 2025) **** ID# 0 ********

 ** Profile: "SCHEMATIC1-lea"  [ f:\swati\orcad_projects\leadlag-pspicefiles\schematic1\lea.sim ] 


 ****     INITIAL TRANSIENT SOLUTION       TEMPERATURE =   27.000 DEG C

                      MONTE CARLO PASS 22

******************************************************************************



 NODE   VOLTAGE     NODE   VOLTAGE     NODE   VOLTAGE     NODE   VOLTAGE


(   V+)   12.0000  (   V-)  -12.0000  (   VN)    0.0000  (   VP)    0.0000      

( VOUT)    -.0074  (N00266)-744.8E-06 (N00326)-764.2E-06 (X_U1.6) 704.6E-09     

(X_U1.7)    -.0074 (X_U1.8)    -.0074 (X_U1.9)    0.0000 (X_U1.10)    -.6084    

(X_U1.11)   11.9600                   (X_U1.12)   11.9600                       

(X_U1.13)    -.5945                   (X_U1.14)    -.5946                       

(X_U1.53)   11.0000                   (X_U1.54)  -11.0000                       

(X_U1.90)-668.4E-06                   (X_U1.91)   40.0000                       

(X_U1.92)  -40.0000                   (X_U1.99)    0.0000                   




    VOLTAGE SOURCE CURRENTS
    NAME         CURRENT

    V_V1        -1.337E-03
    V_V2         1.337E-03
    V_V3        -7.482E-07
    V_V4        -7.973E-08
    X_U1.vb      7.046E-12
    X_U1.vc      1.101E-11
    X_U1.ve      1.250E-11
    X_U1.vlim   -6.684E-07
    X_U1.vlp    -4.000E-11
    X_U1.vln    -4.000E-11

    TOTAL POWER DISSIPATION   3.21E-02  WATTS


**** 06/30/25 12:32:51 ***** PSpice 24.1.0 (17 April 2025) **** ID# 0 ********

 ** Profile: "SCHEMATIC1-lea"  [ f:\swati\orcad_projects\leadlag-pspicefiles\schematic1\lea.sim ] 


 ****     INITIAL TRANSIENT SOLUTION       TEMPERATURE =   27.000 DEG C

                      MONTE CARLO PASS 23

******************************************************************************



 NODE   VOLTAGE     NODE   VOLTAGE     NODE   VOLTAGE     NODE   VOLTAGE


(   V+)   12.0000  (   V-)  -12.0000  (   VN)    0.0000  (   VP)    0.0000      

( VOUT)    -.0077  (N00266)-773.3E-06 (N00326)-792.6E-06 (X_U1.6) 739.6E-09     

(X_U1.7)    -.0078 (X_U1.8)    -.0078 (X_U1.9)    0.0000 (X_U1.10)    -.6085    

(X_U1.11)   11.9600                   (X_U1.12)   11.9600                       

(X_U1.13)    -.5946                   (X_U1.14)    -.5946                       

(X_U1.53)   11.0000                   (X_U1.54)  -11.0000                       

(X_U1.90)-668.9E-06                   (X_U1.91)   40.0000                       

(X_U1.92)  -40.0000                   (X_U1.99)    0.0000                   




    VOLTAGE SOURCE CURRENTS
    NAME         CURRENT

    V_V1        -1.337E-03
    V_V2         1.337E-03
    V_V3        -7.487E-07
    V_V4        -7.973E-08
    X_U1.vb      7.396E-12
    X_U1.vc      1.101E-11
    X_U1.ve      1.250E-11
    X_U1.vlim   -6.689E-07
    X_U1.vlp    -4.000E-11
    X_U1.vln    -4.000E-11

    TOTAL POWER DISSIPATION   3.21E-02  WATTS


**** 06/30/25 12:32:51 ***** PSpice 24.1.0 (17 April 2025) **** ID# 0 ********

 ** Profile: "SCHEMATIC1-lea"  [ f:\swati\orcad_projects\leadlag-pspicefiles\schematic1\lea.sim ] 


 ****     INITIAL TRANSIENT SOLUTION       TEMPERATURE =   27.000 DEG C

                      MONTE CARLO PASS 24

******************************************************************************



 NODE   VOLTAGE     NODE   VOLTAGE     NODE   VOLTAGE     NODE   VOLTAGE


(   V+)   12.0000  (   V-)  -12.0000  (   VN)    0.0000  (   VP)    0.0000      

( VOUT)    -.0084  (N00266)-814.4E-06 (N00326)-833.8E-06 (X_U1.6) 800.5E-09     

(X_U1.7)    -.0084 (X_U1.8)    -.0084 (X_U1.9)    0.0000 (X_U1.10)    -.6085    

(X_U1.11)   11.9600                   (X_U1.12)   11.9600                       

(X_U1.13)    -.5946                   (X_U1.14)    -.5946                       

(X_U1.53)   11.0000                   (X_U1.54)  -11.0000                       

(X_U1.90)-725.2E-06                   (X_U1.91)   40.0000                       

(X_U1.92)  -40.0000                   (X_U1.99)    0.0000                   




    VOLTAGE SOURCE CURRENTS
    NAME         CURRENT

    V_V1        -1.337E-03
    V_V2         1.337E-03
    V_V3        -8.050E-07
    V_V4        -7.973E-08
    X_U1.vb      8.005E-12
    X_U1.vc      1.101E-11
    X_U1.ve      1.250E-11
    X_U1.vlim   -7.252E-07
    X_U1.vlp    -4.000E-11
    X_U1.vln    -4.000E-11

    TOTAL POWER DISSIPATION   3.21E-02  WATTS


**** 06/30/25 12:32:51 ***** PSpice 24.1.0 (17 April 2025) **** ID# 0 ********

 ** Profile: "SCHEMATIC1-lea"  [ f:\swati\orcad_projects\leadlag-pspicefiles\schematic1\lea.sim ] 


 ****     INITIAL TRANSIENT SOLUTION       TEMPERATURE =   27.000 DEG C

                      MONTE CARLO PASS 25

******************************************************************************



 NODE   VOLTAGE     NODE   VOLTAGE     NODE   VOLTAGE     NODE   VOLTAGE


(   V+)   12.0000  (   V-)  -12.0000  (   VN)    0.0000  (   VP)    0.0000      

( VOUT)    -.0076  (N00266)-758.1E-06 (N00326)-777.4E-06 (X_U1.6) 725.6E-09     

(X_U1.7)    -.0076 (X_U1.8)    -.0076 (X_U1.9)    0.0000 (X_U1.10)    -.6084    

(X_U1.11)   11.9600                   (X_U1.12)   11.9600                       

(X_U1.13)    -.5946                   (X_U1.14)    -.5946                       

(X_U1.53)   11.0000                   (X_U1.54)  -11.0000                       

(X_U1.90)-661.6E-06                   (X_U1.91)   40.0000                       

(X_U1.92)  -40.0000                   (X_U1.99)    0.0000                   




    VOLTAGE SOURCE CURRENTS
    NAME         CURRENT

    V_V1        -1.337E-03
    V_V2         1.337E-03
    V_V3        -7.414E-07
    V_V4        -7.973E-08
    X_U1.vb      7.256E-12
    X_U1.vc      1.101E-11
    X_U1.ve      1.250E-11
    X_U1.vlim   -6.616E-07
    X_U1.vlp    -4.000E-11
    X_U1.vln    -4.000E-11

    TOTAL POWER DISSIPATION   3.21E-02  WATTS


**** 06/30/25 12:32:51 ***** PSpice 24.1.0 (17 April 2025) **** ID# 0 ********

 ** Profile: "SCHEMATIC1-lea"  [ f:\swati\orcad_projects\leadlag-pspicefiles\schematic1\lea.sim ] 


 ****     INITIAL TRANSIENT SOLUTION       TEMPERATURE =   27.000 DEG C

                      MONTE CARLO PASS 26

******************************************************************************



 NODE   VOLTAGE     NODE   VOLTAGE     NODE   VOLTAGE     NODE   VOLTAGE


(   V+)   12.0000  (   V-)  -12.0000  (   VN)    0.0000  (   VP)    0.0000      

( VOUT)    -.0079  (N00266)-801.0E-06 (N00326)-820.4E-06 (X_U1.6) 750.4E-09     

(X_U1.7)    -.0079 (X_U1.8)    -.0079 (X_U1.9)    0.0000 (X_U1.10)    -.6085    

(X_U1.11)   11.9600                   (X_U1.12)   11.9600                       

(X_U1.13)    -.5946                   (X_U1.14)    -.5946                       

(X_U1.53)   11.0000                   (X_U1.54)  -11.0000                       

(X_U1.90)-684.8E-06                   (X_U1.91)   40.0000                       

(X_U1.92)  -40.0000                   (X_U1.99)    0.0000                   




    VOLTAGE SOURCE CURRENTS
    NAME         CURRENT

    V_V1        -1.337E-03
    V_V2         1.337E-03
    V_V3        -7.646E-07
    V_V4        -7.973E-08
    X_U1.vb      7.504E-12
    X_U1.vc      1.101E-11
    X_U1.ve      1.250E-11
    X_U1.vlim   -6.848E-07
    X_U1.vlp    -4.000E-11
    X_U1.vln    -4.000E-11

    TOTAL POWER DISSIPATION   3.21E-02  WATTS


**** 06/30/25 12:32:51 ***** PSpice 24.1.0 (17 April 2025) **** ID# 0 ********

 ** Profile: "SCHEMATIC1-lea"  [ f:\swati\orcad_projects\leadlag-pspicefiles\schematic1\lea.sim ] 


 ****     INITIAL TRANSIENT SOLUTION       TEMPERATURE =   27.000 DEG C

                      MONTE CARLO PASS 27

******************************************************************************



 NODE   VOLTAGE     NODE   VOLTAGE     NODE   VOLTAGE     NODE   VOLTAGE


(   V+)   12.0000  (   V-)  -12.0000  (   VN)    0.0000  (   VP)    0.0000      

( VOUT)    -.0081  (N00266)-753.5E-06 (N00326)-772.8E-06 (X_U1.6) 769.7E-09     

(X_U1.7)    -.0081 (X_U1.8)    -.0081 (X_U1.9)    0.0000 (X_U1.10)    -.6084    

(X_U1.11)   11.9600                   (X_U1.12)   11.9600                       

(X_U1.13)    -.5946                   (X_U1.14)    -.5946                       

(X_U1.53)   11.0000                   (X_U1.54)  -11.0000                       

(X_U1.90)-696.3E-06                   (X_U1.91)   40.0000                       

(X_U1.92)  -40.0000                   (X_U1.99)    0.0000                   




    VOLTAGE SOURCE CURRENTS
    NAME         CURRENT

    V_V1        -1.337E-03
    V_V2         1.337E-03
    V_V3        -7.761E-07
    V_V4        -7.973E-08
    X_U1.vb      7.697E-12
    X_U1.vc      1.101E-11
    X_U1.ve      1.250E-11
    X_U1.vlim   -6.963E-07
    X_U1.vlp    -4.000E-11
    X_U1.vln    -4.000E-11

    TOTAL POWER DISSIPATION   3.21E-02  WATTS


**** 06/30/25 12:32:51 ***** PSpice 24.1.0 (17 April 2025) **** ID# 0 ********

 ** Profile: "SCHEMATIC1-lea"  [ f:\swati\orcad_projects\leadlag-pspicefiles\schematic1\lea.sim ] 


 ****     INITIAL TRANSIENT SOLUTION       TEMPERATURE =   27.000 DEG C

                      MONTE CARLO PASS 28

******************************************************************************



 NODE   VOLTAGE     NODE   VOLTAGE     NODE   VOLTAGE     NODE   VOLTAGE


(   V+)   12.0000  (   V-)  -12.0000  (   VN)    0.0000  (   VP)    0.0000      

( VOUT)    -.0085  (N00266)-816.6E-06 (N00326)-835.9E-06 (X_U1.6) 807.1E-09     

(X_U1.7)    -.0085 (X_U1.8)    -.0085 (X_U1.9)    0.0000 (X_U1.10)    -.6085    

(X_U1.11)   11.9600                   (X_U1.12)   11.9600                       

(X_U1.13)    -.5946                   (X_U1.14)    -.5946                       

(X_U1.53)   11.0000                   (X_U1.54)  -11.0000                       

(X_U1.90)-767.0E-06                   (X_U1.91)   40.0000                       

(X_U1.92)  -40.0000                   (X_U1.99)    0.0000                   




    VOLTAGE SOURCE CURRENTS
    NAME         CURRENT

    V_V1        -1.337E-03
    V_V2         1.337E-03
    V_V3        -8.468E-07
    V_V4        -7.973E-08
    X_U1.vb      8.071E-12
    X_U1.vc      1.101E-11
    X_U1.ve      1.250E-11
    X_U1.vlim   -7.670E-07
    X_U1.vlp    -4.000E-11
    X_U1.vln    -4.000E-11

    TOTAL POWER DISSIPATION   3.21E-02  WATTS


**** 06/30/25 12:32:51 ***** PSpice 24.1.0 (17 April 2025) **** ID# 0 ********

 ** Profile: "SCHEMATIC1-lea"  [ f:\swati\orcad_projects\leadlag-pspicefiles\schematic1\lea.sim ] 


 ****     INITIAL TRANSIENT SOLUTION       TEMPERATURE =   27.000 DEG C

                      MONTE CARLO PASS 29

******************************************************************************



 NODE   VOLTAGE     NODE   VOLTAGE     NODE   VOLTAGE     NODE   VOLTAGE


(   V+)   12.0000  (   V-)  -12.0000  (   VN)    0.0000  (   VP)    0.0000      

( VOUT)    -.0073  (N00266)-763.5E-06 (N00326)-782.8E-06 (X_U1.6) 692.5E-09     

(X_U1.7)    -.0073 (X_U1.8)    -.0073 (X_U1.9)    0.0000 (X_U1.10)    -.6084    

(X_U1.11)   11.9600                   (X_U1.12)   11.9600                       

(X_U1.13)    -.5946                   (X_U1.14)    -.5946                       

(X_U1.53)   11.0000                   (X_U1.54)  -11.0000                       

(X_U1.90)-659.7E-06                   (X_U1.91)   40.0000                       

(X_U1.92)  -40.0000                   (X_U1.99)    0.0000                   




    VOLTAGE SOURCE CURRENTS
    NAME         CURRENT

    V_V1        -1.337E-03
    V_V2         1.337E-03
    V_V3        -7.394E-07
    V_V4        -7.973E-08
    X_U1.vb      6.925E-12
    X_U1.vc      1.101E-11
    X_U1.ve      1.250E-11
    X_U1.vlim   -6.597E-07
    X_U1.vlp    -4.000E-11
    X_U1.vln    -4.000E-11

    TOTAL POWER DISSIPATION   3.21E-02  WATTS


**** 06/30/25 12:32:51 ***** PSpice 24.1.0 (17 April 2025) **** ID# 0 ********

 ** Profile: "SCHEMATIC1-lea"  [ f:\swati\orcad_projects\leadlag-pspicefiles\schematic1\lea.sim ] 


 ****     INITIAL TRANSIENT SOLUTION       TEMPERATURE =   27.000 DEG C

                      MONTE CARLO PASS 30

******************************************************************************



 NODE   VOLTAGE     NODE   VOLTAGE     NODE   VOLTAGE     NODE   VOLTAGE


(   V+)   12.0000  (   V-)  -12.0000  (   VN)    0.0000  (   VP)    0.0000      

( VOUT)    -.0084  (N00266)-803.3E-06 (N00326)-822.6E-06 (X_U1.6) 800.7E-09     

(X_U1.7)    -.0084 (X_U1.8)    -.0084 (X_U1.9)    0.0000 (X_U1.10)    -.6085    

(X_U1.11)   11.9600                   (X_U1.12)   11.9600                       

(X_U1.13)    -.5946                   (X_U1.14)    -.5946                       

(X_U1.53)   11.0000                   (X_U1.54)  -11.0000                       

(X_U1.90)-765.1E-06                   (X_U1.91)   40.0000                       

(X_U1.92)  -40.0000                   (X_U1.99)    0.0000                   




    VOLTAGE SOURCE CURRENTS
    NAME         CURRENT

    V_V1        -1.337E-03
    V_V2         1.337E-03
    V_V3        -8.449E-07
    V_V4        -7.973E-08
    X_U1.vb      8.007E-12
    X_U1.vc      1.101E-11
    X_U1.ve      1.250E-11
    X_U1.vlim   -7.651E-07
    X_U1.vlp    -4.000E-11
    X_U1.vln    -4.000E-11

    TOTAL POWER DISSIPATION   3.21E-02  WATTS


**** 06/30/25 12:32:51 ***** PSpice 24.1.0 (17 April 2025) **** ID# 0 ********

 ** Profile: "SCHEMATIC1-lea"  [ f:\swati\orcad_projects\leadlag-pspicefiles\schematic1\lea.sim ] 


 ****     INITIAL TRANSIENT SOLUTION       TEMPERATURE =   27.000 DEG C

                      MONTE CARLO PASS 31

******************************************************************************



 NODE   VOLTAGE     NODE   VOLTAGE     NODE   VOLTAGE     NODE   VOLTAGE


(   V+)   12.0000  (   V-)  -12.0000  (   VN)    0.0000  (   VP)    0.0000      

( VOUT)    -.0083  (N00266)-809.2E-06 (N00326)-828.5E-06 (X_U1.6) 791.5E-09     

(X_U1.7)    -.0083 (X_U1.8)    -.0083 (X_U1.9)    0.0000 (X_U1.10)    -.6085    

(X_U1.11)   11.9600                   (X_U1.12)   11.9600                       

(X_U1.13)    -.5946                   (X_U1.14)    -.5946                       

(X_U1.53)   11.0000                   (X_U1.54)  -11.0000                       

(X_U1.90)-729.8E-06                   (X_U1.91)   40.0000                       

(X_U1.92)  -40.0000                   (X_U1.99)    0.0000                   




    VOLTAGE SOURCE CURRENTS
    NAME         CURRENT

    V_V1        -1.337E-03
    V_V2         1.337E-03
    V_V3        -8.096E-07
    V_V4        -7.973E-08
    X_U1.vb      7.915E-12
    X_U1.vc      1.101E-11
    X_U1.ve      1.250E-11
    X_U1.vlim   -7.298E-07
    X_U1.vlp    -4.000E-11
    X_U1.vln    -4.000E-11

    TOTAL POWER DISSIPATION   3.21E-02  WATTS


**** 06/30/25 12:32:51 ***** PSpice 24.1.0 (17 April 2025) **** ID# 0 ********

 ** Profile: "SCHEMATIC1-lea"  [ f:\swati\orcad_projects\leadlag-pspicefiles\schematic1\lea.sim ] 


 ****     INITIAL TRANSIENT SOLUTION       TEMPERATURE =   27.000 DEG C

                      MONTE CARLO PASS 32

******************************************************************************



 NODE   VOLTAGE     NODE   VOLTAGE     NODE   VOLTAGE     NODE   VOLTAGE


(   V+)   12.0000  (   V-)  -12.0000  (   VN)    0.0000  (   VP)    0.0000      

( VOUT)    -.0078  (N00266)-803.2E-06 (N00326)-822.5E-06 (X_U1.6) 747.0E-09     

(X_U1.7)    -.0079 (X_U1.8)    -.0079 (X_U1.9)    0.0000 (X_U1.10)    -.6085    

(X_U1.11)   11.9600                   (X_U1.12)   11.9600                       

(X_U1.13)    -.5946                   (X_U1.14)    -.5946                       

(X_U1.53)   11.0000                   (X_U1.54)  -11.0000                       

(X_U1.90)-705.0E-06                   (X_U1.91)   40.0000                       

(X_U1.92)  -40.0000                   (X_U1.99)    0.0000                   




    VOLTAGE SOURCE CURRENTS
    NAME         CURRENT

    V_V1        -1.337E-03
    V_V2         1.337E-03
    V_V3        -7.847E-07
    V_V4        -7.973E-08
    X_U1.vb      7.470E-12
    X_U1.vc      1.101E-11
    X_U1.ve      1.250E-11
    X_U1.vlim   -7.050E-07
    X_U1.vlp    -4.000E-11
    X_U1.vln    -4.000E-11

    TOTAL POWER DISSIPATION   3.21E-02  WATTS


**** 06/30/25 12:32:51 ***** PSpice 24.1.0 (17 April 2025) **** ID# 0 ********

 ** Profile: "SCHEMATIC1-lea"  [ f:\swati\orcad_projects\leadlag-pspicefiles\schematic1\lea.sim ] 


 ****     INITIAL TRANSIENT SOLUTION       TEMPERATURE =   27.000 DEG C

                      MONTE CARLO PASS 33

******************************************************************************



 NODE   VOLTAGE     NODE   VOLTAGE     NODE   VOLTAGE     NODE   VOLTAGE


(   V+)   12.0000  (   V-)  -12.0000  (   VN)    0.0000  (   VP)    0.0000      

( VOUT)    -.0081  (N00266)-754.6E-06 (N00326)-774.0E-06 (X_U1.6) 770.6E-09     

(X_U1.7)    -.0081 (X_U1.8)    -.0081 (X_U1.9)    0.0000 (X_U1.10)    -.6084    

(X_U1.11)   11.9600                   (X_U1.12)   11.9600                       

(X_U1.13)    -.5946                   (X_U1.14)    -.5946                       

(X_U1.53)   11.0000                   (X_U1.54)  -11.0000                       

(X_U1.90)-703.4E-06                   (X_U1.91)   40.0000                       

(X_U1.92)  -40.0000                   (X_U1.99)    0.0000                   




    VOLTAGE SOURCE CURRENTS
    NAME         CURRENT

    V_V1        -1.337E-03
    V_V2         1.337E-03
    V_V3        -7.832E-07
    V_V4        -7.973E-08
    X_U1.vb      7.706E-12
    X_U1.vc      1.101E-11
    X_U1.ve      1.250E-11
    X_U1.vlim   -7.034E-07
    X_U1.vlp    -4.000E-11
    X_U1.vln    -4.000E-11

    TOTAL POWER DISSIPATION   3.21E-02  WATTS


**** 06/30/25 12:32:51 ***** PSpice 24.1.0 (17 April 2025) **** ID# 0 ********

 ** Profile: "SCHEMATIC1-lea"  [ f:\swati\orcad_projects\leadlag-pspicefiles\schematic1\lea.sim ] 


 ****     INITIAL TRANSIENT SOLUTION       TEMPERATURE =   27.000 DEG C

                      MONTE CARLO PASS 34

******************************************************************************



 NODE   VOLTAGE     NODE   VOLTAGE     NODE   VOLTAGE     NODE   VOLTAGE


(   V+)   12.0000  (   V-)  -12.0000  (   VN)    0.0000  (   VP)    0.0000      

( VOUT)    -.0081  (N00266)-762.3E-06 (N00326)-781.6E-06 (X_U1.6) 772.8E-09     

(X_U1.7)    -.0081 (X_U1.8)    -.0081 (X_U1.9)    0.0000 (X_U1.10)    -.6084    

(X_U1.11)   11.9600                   (X_U1.12)   11.9600                       

(X_U1.13)    -.5946                   (X_U1.14)    -.5946                       

(X_U1.53)   11.0000                   (X_U1.54)  -11.0000                       

(X_U1.90)-714.9E-06                   (X_U1.91)   40.0000                       

(X_U1.92)  -40.0000                   (X_U1.99)    0.0000                   




    VOLTAGE SOURCE CURRENTS
    NAME         CURRENT

    V_V1        -1.337E-03
    V_V2         1.337E-03
    V_V3        -7.947E-07
    V_V4        -7.973E-08
    X_U1.vb      7.728E-12
    X_U1.vc      1.101E-11
    X_U1.ve      1.250E-11
    X_U1.vlim   -7.149E-07
    X_U1.vlp    -4.000E-11
    X_U1.vln    -4.000E-11

    TOTAL POWER DISSIPATION   3.21E-02  WATTS


**** 06/30/25 12:32:51 ***** PSpice 24.1.0 (17 April 2025) **** ID# 0 ********

 ** Profile: "SCHEMATIC1-lea"  [ f:\swati\orcad_projects\leadlag-pspicefiles\schematic1\lea.sim ] 


 ****     INITIAL TRANSIENT SOLUTION       TEMPERATURE =   27.000 DEG C

                      MONTE CARLO PASS 35

******************************************************************************



 NODE   VOLTAGE     NODE   VOLTAGE     NODE   VOLTAGE     NODE   VOLTAGE


(   V+)   12.0000  (   V-)  -12.0000  (   VN)    0.0000  (   VP)    0.0000      

( VOUT)    -.0078  (N00266)-758.5E-06 (N00326)-777.8E-06 (X_U1.6) 741.6E-09     

(X_U1.7)    -.0078 (X_U1.8)    -.0078 (X_U1.9)    0.0000 (X_U1.10)    -.6084    

(X_U1.11)   11.9600                   (X_U1.12)   11.9600                       

(X_U1.13)    -.5946                   (X_U1.14)    -.5946                       

(X_U1.53)   11.0000                   (X_U1.54)  -11.0000                       

(X_U1.90)-668.4E-06                   (X_U1.91)   40.0000                       

(X_U1.92)  -40.0000                   (X_U1.99)    0.0000                   




    VOLTAGE SOURCE CURRENTS
    NAME         CURRENT

    V_V1        -1.337E-03
    V_V2         1.337E-03
    V_V3        -7.482E-07
    V_V4        -7.973E-08
    X_U1.vb      7.416E-12
    X_U1.vc      1.101E-11
    X_U1.ve      1.250E-11
    X_U1.vlim   -6.684E-07
    X_U1.vlp    -4.000E-11
    X_U1.vln    -4.000E-11

    TOTAL POWER DISSIPATION   3.21E-02  WATTS


**** 06/30/25 12:32:51 ***** PSpice 24.1.0 (17 April 2025) **** ID# 0 ********

 ** Profile: "SCHEMATIC1-lea"  [ f:\swati\orcad_projects\leadlag-pspicefiles\schematic1\lea.sim ] 


 ****     INITIAL TRANSIENT SOLUTION       TEMPERATURE =   27.000 DEG C

                      MONTE CARLO PASS 36

******************************************************************************



 NODE   VOLTAGE     NODE   VOLTAGE     NODE   VOLTAGE     NODE   VOLTAGE


(   V+)   12.0000  (   V-)  -12.0000  (   VN)    0.0000  (   VP)    0.0000      

( VOUT)    -.0070  (N00266)-756.8E-06 (N00326)-776.2E-06 (X_U1.6) 668.5E-09     

(X_U1.7)    -.0070 (X_U1.8)    -.0070 (X_U1.9)    0.0000 (X_U1.10)    -.6084    

(X_U1.11)   11.9600                   (X_U1.12)   11.9600                       

(X_U1.13)    -.5946                   (X_U1.14)    -.5946                       

(X_U1.53)   11.0000                   (X_U1.54)  -11.0000                       

(X_U1.90)-642.1E-06                   (X_U1.91)   40.0000                       

(X_U1.92)  -40.0000                   (X_U1.99)    0.0000                   




    VOLTAGE SOURCE CURRENTS
    NAME         CURRENT

    V_V1        -1.337E-03
    V_V2         1.337E-03
    V_V3        -7.219E-07
    V_V4        -7.973E-08
    X_U1.vb      6.685E-12
    X_U1.vc      1.101E-11
    X_U1.ve      1.250E-11
    X_U1.vlim   -6.421E-07
    X_U1.vlp    -4.000E-11
    X_U1.vln    -4.000E-11

    TOTAL POWER DISSIPATION   3.21E-02  WATTS


**** 06/30/25 12:32:51 ***** PSpice 24.1.0 (17 April 2025) **** ID# 0 ********

 ** Profile: "SCHEMATIC1-lea"  [ f:\swati\orcad_projects\leadlag-pspicefiles\schematic1\lea.sim ] 


 ****     INITIAL TRANSIENT SOLUTION       TEMPERATURE =   27.000 DEG C

                      MONTE CARLO PASS 37

******************************************************************************



 NODE   VOLTAGE     NODE   VOLTAGE     NODE   VOLTAGE     NODE   VOLTAGE


(   V+)   12.0000  (   V-)  -12.0000  (   VN)    0.0000  (   VP)    0.0000      

( VOUT)    -.0078  (N00266)-815.0E-06 (N00326)-834.3E-06 (X_U1.6) 747.5E-09     

(X_U1.7)    -.0079 (X_U1.8)    -.0079 (X_U1.9)    0.0000 (X_U1.10)    -.6085    

(X_U1.11)   11.9600                   (X_U1.12)   11.9600                       

(X_U1.13)    -.5946                   (X_U1.14)    -.5946                       

(X_U1.53)   11.0000                   (X_U1.54)  -11.0000                       

(X_U1.90)-697.3E-06                   (X_U1.91)   40.0000                       

(X_U1.92)  -40.0000                   (X_U1.99)    0.0000                   




    VOLTAGE SOURCE CURRENTS
    NAME         CURRENT

    V_V1        -1.337E-03
    V_V2         1.337E-03
    V_V3        -7.770E-07
    V_V4        -7.973E-08
    X_U1.vb      7.475E-12
    X_U1.vc      1.101E-11
    X_U1.ve      1.250E-11
    X_U1.vlim   -6.973E-07
    X_U1.vlp    -4.000E-11
    X_U1.vln    -4.000E-11

    TOTAL POWER DISSIPATION   3.21E-02  WATTS


**** 06/30/25 12:32:51 ***** PSpice 24.1.0 (17 April 2025) **** ID# 0 ********

 ** Profile: "SCHEMATIC1-lea"  [ f:\swati\orcad_projects\leadlag-pspicefiles\schematic1\lea.sim ] 


 ****     INITIAL TRANSIENT SOLUTION       TEMPERATURE =   27.000 DEG C

                      MONTE CARLO PASS 38

******************************************************************************



 NODE   VOLTAGE     NODE   VOLTAGE     NODE   VOLTAGE     NODE   VOLTAGE


(   V+)   12.0000  (   V-)  -12.0000  (   VN)    0.0000  (   VP)    0.0000      

( VOUT)    -.0078  (N00266)-774.9E-06 (N00326)-794.2E-06 (X_U1.6) 745.6E-09     

(X_U1.7)    -.0078 (X_U1.8)    -.0078 (X_U1.9)    0.0000 (X_U1.10)    -.6085    

(X_U1.11)   11.9600                   (X_U1.12)   11.9600                       

(X_U1.13)    -.5946                   (X_U1.14)    -.5946                       

(X_U1.53)   11.0000                   (X_U1.54)  -11.0000                       

(X_U1.90)-676.9E-06                   (X_U1.91)   40.0000                       

(X_U1.92)  -40.0000                   (X_U1.99)    0.0000                   




    VOLTAGE SOURCE CURRENTS
    NAME         CURRENT

    V_V1        -1.337E-03
    V_V2         1.337E-03
    V_V3        -7.566E-07
    V_V4        -7.973E-08
    X_U1.vb      7.456E-12
    X_U1.vc      1.101E-11
    X_U1.ve      1.250E-11
    X_U1.vlim   -6.769E-07
    X_U1.vlp    -4.000E-11
    X_U1.vln    -4.000E-11

    TOTAL POWER DISSIPATION   3.21E-02  WATTS


**** 06/30/25 12:32:51 ***** PSpice 24.1.0 (17 April 2025) **** ID# 0 ********

 ** Profile: "SCHEMATIC1-lea"  [ f:\swati\orcad_projects\leadlag-pspicefiles\schematic1\lea.sim ] 


 ****     INITIAL TRANSIENT SOLUTION       TEMPERATURE =   27.000 DEG C

                      MONTE CARLO PASS 39

******************************************************************************



 NODE   VOLTAGE     NODE   VOLTAGE     NODE   VOLTAGE     NODE   VOLTAGE


(   V+)   12.0000  (   V-)  -12.0000  (   VN)    0.0000  (   VP)    0.0000      

( VOUT)    -.0082  (N00266)-814.5E-06 (N00326)-833.8E-06 (X_U1.6) 782.8E-09     

(X_U1.7)    -.0082 (X_U1.8)    -.0082 (X_U1.9)    0.0000 (X_U1.10)    -.6085    

(X_U1.11)   11.9600                   (X_U1.12)   11.9600                       

(X_U1.13)    -.5946                   (X_U1.14)    -.5946                       

(X_U1.53)   11.0000                   (X_U1.54)  -11.0000                       

(X_U1.90)-725.1E-06                   (X_U1.91)   40.0000                       

(X_U1.92)  -40.0000                   (X_U1.99)    0.0000                   




    VOLTAGE SOURCE CURRENTS
    NAME         CURRENT

    V_V1        -1.337E-03
    V_V2         1.337E-03
    V_V3        -8.048E-07
    V_V4        -7.973E-08
    X_U1.vb      7.828E-12
    X_U1.vc      1.101E-11
    X_U1.ve      1.250E-11
    X_U1.vlim   -7.251E-07
    X_U1.vlp    -4.000E-11
    X_U1.vln    -4.000E-11

    TOTAL POWER DISSIPATION   3.21E-02  WATTS


**** 06/30/25 12:32:51 ***** PSpice 24.1.0 (17 April 2025) **** ID# 0 ********

 ** Profile: "SCHEMATIC1-lea"  [ f:\swati\orcad_projects\leadlag-pspicefiles\schematic1\lea.sim ] 


 ****     INITIAL TRANSIENT SOLUTION       TEMPERATURE =   27.000 DEG C

                      MONTE CARLO PASS 40

******************************************************************************



 NODE   VOLTAGE     NODE   VOLTAGE     NODE   VOLTAGE     NODE   VOLTAGE


(   V+)   12.0000  (   V-)  -12.0000  (   VN)    0.0000  (   VP)    0.0000      

( VOUT)    -.0082  (N00266)-786.7E-06 (N00326)-806.0E-06 (X_U1.6) 778.1E-09     

(X_U1.7)    -.0082 (X_U1.8)    -.0082 (X_U1.9)    0.0000 (X_U1.10)    -.6085    

(X_U1.11)   11.9600                   (X_U1.12)   11.9600                       

(X_U1.13)    -.5946                   (X_U1.14)    -.5946                       

(X_U1.53)   11.0000                   (X_U1.54)  -11.0000                       

(X_U1.90)-706.9E-06                   (X_U1.91)   40.0000                       

(X_U1.92)  -40.0000                   (X_U1.99)    0.0000                   




    VOLTAGE SOURCE CURRENTS
    NAME         CURRENT

    V_V1        -1.337E-03
    V_V2         1.337E-03
    V_V3        -7.867E-07
    V_V4        -7.973E-08
    X_U1.vb      7.781E-12
    X_U1.vc      1.101E-11
    X_U1.ve      1.250E-11
    X_U1.vlim   -7.069E-07
    X_U1.vlp    -4.000E-11
    X_U1.vln    -4.000E-11

    TOTAL POWER DISSIPATION   3.21E-02  WATTS


**** 06/30/25 12:32:51 ***** PSpice 24.1.0 (17 April 2025) **** ID# 0 ********

 ** Profile: "SCHEMATIC1-lea"  [ f:\swati\orcad_projects\leadlag-pspicefiles\schematic1\lea.sim ] 


 ****     INITIAL TRANSIENT SOLUTION       TEMPERATURE =   27.000 DEG C

                      MONTE CARLO PASS 41

******************************************************************************



 NODE   VOLTAGE     NODE   VOLTAGE     NODE   VOLTAGE     NODE   VOLTAGE


(   V+)   12.0000  (   V-)  -12.0000  (   VN)    0.0000  (   VP)    0.0000      

( VOUT)    -.0080  (N00266)-786.2E-06 (N00326)-805.5E-06 (X_U1.6) 764.0E-09     

(X_U1.7)    -.0080 (X_U1.8)    -.0080 (X_U1.9)    0.0000 (X_U1.10)    -.6085    

(X_U1.11)   11.9600                   (X_U1.12)   11.9600                       

(X_U1.13)    -.5946                   (X_U1.14)    -.5946                       

(X_U1.53)   11.0000                   (X_U1.54)  -11.0000                       

(X_U1.90)-696.1E-06                   (X_U1.91)   40.0000                       

(X_U1.92)  -40.0000                   (X_U1.99)    0.0000                   




    VOLTAGE SOURCE CURRENTS
    NAME         CURRENT

    V_V1        -1.337E-03
    V_V2         1.337E-03
    V_V3        -7.759E-07
    V_V4        -7.973E-08
    X_U1.vb      7.640E-12
    X_U1.vc      1.101E-11
    X_U1.ve      1.250E-11
    X_U1.vlim   -6.961E-07
    X_U1.vlp    -4.000E-11
    X_U1.vln    -4.000E-11

    TOTAL POWER DISSIPATION   3.21E-02  WATTS


**** 06/30/25 12:32:51 ***** PSpice 24.1.0 (17 April 2025) **** ID# 0 ********

 ** Profile: "SCHEMATIC1-lea"  [ f:\swati\orcad_projects\leadlag-pspicefiles\schematic1\lea.sim ] 


 ****     INITIAL TRANSIENT SOLUTION       TEMPERATURE =   27.000 DEG C

                      MONTE CARLO PASS 42

******************************************************************************



 NODE   VOLTAGE     NODE   VOLTAGE     NODE   VOLTAGE     NODE   VOLTAGE


(   V+)   12.0000  (   V-)  -12.0000  (   VN)    0.0000  (   VP)    0.0000      

( VOUT)    -.0076  (N00266)-773.3E-06 (N00326)-792.7E-06 (X_U1.6) 721.0E-09     

(X_U1.7)    -.0076 (X_U1.8)    -.0076 (X_U1.9)    0.0000 (X_U1.10)    -.6085    

(X_U1.11)   11.9600                   (X_U1.12)   11.9600                       

(X_U1.13)    -.5946                   (X_U1.14)    -.5946                       

(X_U1.53)   11.0000                   (X_U1.54)  -11.0000                       

(X_U1.90)-679.6E-06                   (X_U1.91)   40.0000                       

(X_U1.92)  -40.0000                   (X_U1.99)    0.0000                   




    VOLTAGE SOURCE CURRENTS
    NAME         CURRENT

    V_V1        -1.337E-03
    V_V2         1.337E-03
    V_V3        -7.594E-07
    V_V4        -7.973E-08
    X_U1.vb      7.210E-12
    X_U1.vc      1.101E-11
    X_U1.ve      1.250E-11
    X_U1.vlim   -6.796E-07
    X_U1.vlp    -4.000E-11
    X_U1.vln    -4.000E-11

    TOTAL POWER DISSIPATION   3.21E-02  WATTS


**** 06/30/25 12:32:51 ***** PSpice 24.1.0 (17 April 2025) **** ID# 0 ********

 ** Profile: "SCHEMATIC1-lea"  [ f:\swati\orcad_projects\leadlag-pspicefiles\schematic1\lea.sim ] 


 ****     INITIAL TRANSIENT SOLUTION       TEMPERATURE =   27.000 DEG C

                      MONTE CARLO PASS 43

******************************************************************************



 NODE   VOLTAGE     NODE   VOLTAGE     NODE   VOLTAGE     NODE   VOLTAGE


(   V+)   12.0000  (   V-)  -12.0000  (   VN)    0.0000  (   VP)    0.0000      

( VOUT)    -.0078  (N00266)-794.8E-06 (N00326)-814.1E-06 (X_U1.6) 746.0E-09     

(X_U1.7)    -.0078 (X_U1.8)    -.0078 (X_U1.9)    0.0000 (X_U1.10)    -.6085    

(X_U1.11)   11.9600                   (X_U1.12)   11.9600                       

(X_U1.13)    -.5946                   (X_U1.14)    -.5946                       

(X_U1.53)   11.0000                   (X_U1.54)  -11.0000                       

(X_U1.90)-732.8E-06                   (X_U1.91)   40.0000                       

(X_U1.92)  -40.0000                   (X_U1.99)    0.0000                   




    VOLTAGE SOURCE CURRENTS
    NAME         CURRENT

    V_V1        -1.337E-03
    V_V2         1.337E-03
    V_V3        -8.126E-07
    V_V4        -7.973E-08
    X_U1.vb      7.460E-12
    X_U1.vc      1.101E-11
    X_U1.ve      1.250E-11
    X_U1.vlim   -7.328E-07
    X_U1.vlp    -4.000E-11
    X_U1.vln    -4.000E-11

    TOTAL POWER DISSIPATION   3.21E-02  WATTS


**** 06/30/25 12:32:51 ***** PSpice 24.1.0 (17 April 2025) **** ID# 0 ********

 ** Profile: "SCHEMATIC1-lea"  [ f:\swati\orcad_projects\leadlag-pspicefiles\schematic1\lea.sim ] 


 ****     INITIAL TRANSIENT SOLUTION       TEMPERATURE =   27.000 DEG C

                      MONTE CARLO PASS 44

******************************************************************************



 NODE   VOLTAGE     NODE   VOLTAGE     NODE   VOLTAGE     NODE   VOLTAGE


(   V+)   12.0000  (   V-)  -12.0000  (   VN)    0.0000  (   VP)    0.0000      

( VOUT)    -.0072  (N00266)-755.3E-06 (N00326)-774.6E-06 (X_U1.6) 687.6E-09     

(X_U1.7)    -.0072 (X_U1.8)    -.0072 (X_U1.9)    0.0000 (X_U1.10)    -.6084    

(X_U1.11)   11.9600                   (X_U1.12)   11.9600                       

(X_U1.13)    -.5946                   (X_U1.14)    -.5946                       

(X_U1.53)   11.0000                   (X_U1.54)  -11.0000                       

(X_U1.90)-655.1E-06                   (X_U1.91)   40.0000                       

(X_U1.92)  -40.0000                   (X_U1.99)    0.0000                   




    VOLTAGE SOURCE CURRENTS
    NAME         CURRENT

    V_V1        -1.337E-03
    V_V2         1.337E-03
    V_V3        -7.348E-07
    V_V4        -7.973E-08
    X_U1.vb      6.876E-12
    X_U1.vc      1.101E-11
    X_U1.ve      1.250E-11
    X_U1.vlim   -6.551E-07
    X_U1.vlp    -4.000E-11
    X_U1.vln    -4.000E-11

    TOTAL POWER DISSIPATION   3.21E-02  WATTS


**** 06/30/25 12:32:51 ***** PSpice 24.1.0 (17 April 2025) **** ID# 0 ********

 ** Profile: "SCHEMATIC1-lea"  [ f:\swati\orcad_projects\leadlag-pspicefiles\schematic1\lea.sim ] 


 ****     INITIAL TRANSIENT SOLUTION       TEMPERATURE =   27.000 DEG C

                      MONTE CARLO PASS 45

******************************************************************************



 NODE   VOLTAGE     NODE   VOLTAGE     NODE   VOLTAGE     NODE   VOLTAGE


(   V+)   12.0000  (   V-)  -12.0000  (   VN)    0.0000  (   VP)    0.0000      

( VOUT)    -.0078  (N00266)-760.8E-06 (N00326)-780.2E-06 (X_U1.6) 739.9E-09     

(X_U1.7)    -.0078 (X_U1.8)    -.0078 (X_U1.9)    0.0000 (X_U1.10)    -.6084    

(X_U1.11)   11.9600                   (X_U1.12)   11.9600                       

(X_U1.13)    -.5946                   (X_U1.14)    -.5946                       

(X_U1.53)   11.0000                   (X_U1.54)  -11.0000                       

(X_U1.90)-678.1E-06                   (X_U1.91)   40.0000                       

(X_U1.92)  -40.0000                   (X_U1.99)    0.0000                   




    VOLTAGE SOURCE CURRENTS
    NAME         CURRENT

    V_V1        -1.337E-03
    V_V2         1.337E-03
    V_V3        -7.579E-07
    V_V4        -7.973E-08
    X_U1.vb      7.399E-12
    X_U1.vc      1.101E-11
    X_U1.ve      1.250E-11
    X_U1.vlim   -6.781E-07
    X_U1.vlp    -4.000E-11
    X_U1.vln    -4.000E-11

    TOTAL POWER DISSIPATION   3.21E-02  WATTS


**** 06/30/25 12:32:51 ***** PSpice 24.1.0 (17 April 2025) **** ID# 0 ********

 ** Profile: "SCHEMATIC1-lea"  [ f:\swati\orcad_projects\leadlag-pspicefiles\schematic1\lea.sim ] 


 ****     INITIAL TRANSIENT SOLUTION       TEMPERATURE =   27.000 DEG C

                      MONTE CARLO PASS 46

******************************************************************************



 NODE   VOLTAGE     NODE   VOLTAGE     NODE   VOLTAGE     NODE   VOLTAGE


(   V+)   12.0000  (   V-)  -12.0000  (   VN)    0.0000  (   VP)    0.0000      

( VOUT)    -.0080  (N00266)-814.7E-06 (N00326)-834.0E-06 (X_U1.6) 765.6E-09     

(X_U1.7)    -.0081 (X_U1.8)    -.0081 (X_U1.9)    0.0000 (X_U1.10)    -.6085    

(X_U1.11)   11.9600                   (X_U1.12)   11.9600                       

(X_U1.13)    -.5946                   (X_U1.14)    -.5946                       

(X_U1.53)   11.0000                   (X_U1.54)  -11.0000                       

(X_U1.90)-747.0E-06                   (X_U1.91)   40.0000                       

(X_U1.92)  -40.0000                   (X_U1.99)    0.0000                   




    VOLTAGE SOURCE CURRENTS
    NAME         CURRENT

    V_V1        -1.337E-03
    V_V2         1.337E-03
    V_V3        -8.268E-07
    V_V4        -7.973E-08
    X_U1.vb      7.656E-12
    X_U1.vc      1.101E-11
    X_U1.ve      1.250E-11
    X_U1.vlim   -7.470E-07
    X_U1.vlp    -4.000E-11
    X_U1.vln    -4.000E-11

    TOTAL POWER DISSIPATION   3.21E-02  WATTS


**** 06/30/25 12:32:51 ***** PSpice 24.1.0 (17 April 2025) **** ID# 0 ********

 ** Profile: "SCHEMATIC1-lea"  [ f:\swati\orcad_projects\leadlag-pspicefiles\schematic1\lea.sim ] 


 ****     INITIAL TRANSIENT SOLUTION       TEMPERATURE =   27.000 DEG C

                      MONTE CARLO PASS 47

******************************************************************************



 NODE   VOLTAGE     NODE   VOLTAGE     NODE   VOLTAGE     NODE   VOLTAGE


(   V+)   12.0000  (   V-)  -12.0000  (   VN)    0.0000  (   VP)    0.0000      

( VOUT)    -.0074  (N00266)-741.2E-06 (N00326)-760.5E-06 (X_U1.6) 707.7E-09     

(X_U1.7)    -.0074 (X_U1.8)    -.0074 (X_U1.9)    0.0000 (X_U1.10)    -.6084    

(X_U1.11)   11.9600                   (X_U1.12)   11.9600                       

(X_U1.13)    -.5945                   (X_U1.14)    -.5946                       

(X_U1.53)   11.0000                   (X_U1.54)  -11.0000                       

(X_U1.90)-654.0E-06                   (X_U1.91)   40.0000                       

(X_U1.92)  -40.0000                   (X_U1.99)    0.0000                   




    VOLTAGE SOURCE CURRENTS
    NAME         CURRENT

    V_V1        -1.337E-03
    V_V2         1.337E-03
    V_V3        -7.338E-07
    V_V4        -7.973E-08
    X_U1.vb      7.077E-12
    X_U1.vc      1.101E-11
    X_U1.ve      1.250E-11
    X_U1.vlim   -6.540E-07
    X_U1.vlp    -4.000E-11
    X_U1.vln    -4.000E-11

    TOTAL POWER DISSIPATION   3.21E-02  WATTS


**** 06/30/25 12:32:51 ***** PSpice 24.1.0 (17 April 2025) **** ID# 0 ********

 ** Profile: "SCHEMATIC1-lea"  [ f:\swati\orcad_projects\leadlag-pspicefiles\schematic1\lea.sim ] 


 ****     INITIAL TRANSIENT SOLUTION       TEMPERATURE =   27.000 DEG C

                      MONTE CARLO PASS 48

******************************************************************************



 NODE   VOLTAGE     NODE   VOLTAGE     NODE   VOLTAGE     NODE   VOLTAGE


(   V+)   12.0000  (   V-)  -12.0000  (   VN)    0.0000  (   VP)    0.0000      

( VOUT)    -.0070  (N00266)-742.0E-06 (N00326)-761.3E-06 (X_U1.6) 671.6E-09     

(X_U1.7)    -.0071 (X_U1.8)    -.0071 (X_U1.9)    0.0000 (X_U1.10)    -.6084    

(X_U1.11)   11.9600                   (X_U1.12)   11.9600                       

(X_U1.13)    -.5945                   (X_U1.14)    -.5946                       

(X_U1.53)   11.0000                   (X_U1.54)  -11.0000                       

(X_U1.90)-630.5E-06                   (X_U1.91)   40.0000                       

(X_U1.92)  -40.0000                   (X_U1.99)    0.0000                   




    VOLTAGE SOURCE CURRENTS
    NAME         CURRENT

    V_V1        -1.337E-03
    V_V2         1.337E-03
    V_V3        -7.102E-07
    V_V4        -7.973E-08
    X_U1.vb      6.716E-12
    X_U1.vc      1.101E-11
    X_U1.ve      1.250E-11
    X_U1.vlim   -6.305E-07
    X_U1.vlp    -4.000E-11
    X_U1.vln    -4.000E-11

    TOTAL POWER DISSIPATION   3.21E-02  WATTS


**** 06/30/25 12:32:51 ***** PSpice 24.1.0 (17 April 2025) **** ID# 0 ********

 ** Profile: "SCHEMATIC1-lea"  [ f:\swati\orcad_projects\leadlag-pspicefiles\schematic1\lea.sim ] 


 ****     INITIAL TRANSIENT SOLUTION       TEMPERATURE =   27.000 DEG C

                      MONTE CARLO PASS 49

******************************************************************************



 NODE   VOLTAGE     NODE   VOLTAGE     NODE   VOLTAGE     NODE   VOLTAGE


(   V+)   12.0000  (   V-)  -12.0000  (   VN)    0.0000  (   VP)    0.0000      

( VOUT)    -.0074  (N00266)-765.4E-06 (N00326)-784.7E-06 (X_U1.6) 708.7E-09     

(X_U1.7)    -.0075 (X_U1.8)    -.0075 (X_U1.9)    0.0000 (X_U1.10)    -.6084    

(X_U1.11)   11.9600                   (X_U1.12)   11.9600                       

(X_U1.13)    -.5946                   (X_U1.14)    -.5946                       

(X_U1.53)   11.0000                   (X_U1.54)  -11.0000                       

(X_U1.90)-681.8E-06                   (X_U1.91)   40.0000                       

(X_U1.92)  -40.0000                   (X_U1.99)    0.0000                   




    VOLTAGE SOURCE CURRENTS
    NAME         CURRENT

    V_V1        -1.337E-03
    V_V2         1.337E-03
    V_V3        -7.615E-07
    V_V4        -7.973E-08
    X_U1.vb      7.087E-12
    X_U1.vc      1.101E-11
    X_U1.ve      1.250E-11
    X_U1.vlim   -6.818E-07
    X_U1.vlp    -4.000E-11
    X_U1.vln    -4.000E-11

    TOTAL POWER DISSIPATION   3.21E-02  WATTS


**** 06/30/25 12:32:51 ***** PSpice 24.1.0 (17 April 2025) **** ID# 0 ********

 ** Profile: "SCHEMATIC1-lea"  [ f:\swati\orcad_projects\leadlag-pspicefiles\schematic1\lea.sim ] 


 ****     INITIAL TRANSIENT SOLUTION       TEMPERATURE =   27.000 DEG C

                      MONTE CARLO PASS 50

******************************************************************************



 NODE   VOLTAGE     NODE   VOLTAGE     NODE   VOLTAGE     NODE   VOLTAGE


(   V+)   12.0000  (   V-)  -12.0000  (   VN)    0.0000  (   VP)    0.0000      

( VOUT)    -.0075  (N00266)-784.7E-06 (N00326)-804.0E-06 (X_U1.6) 715.7E-09     

(X_U1.7)    -.0075 (X_U1.8)    -.0075 (X_U1.9)    0.0000 (X_U1.10)    -.6085    

(X_U1.11)   11.9600                   (X_U1.12)   11.9600                       

(X_U1.13)    -.5946                   (X_U1.14)    -.5946                       

(X_U1.53)   11.0000                   (X_U1.54)  -11.0000                       

(X_U1.90)-686.6E-06                   (X_U1.91)   40.0000                       

(X_U1.92)  -40.0000                   (X_U1.99)    0.0000                   




    VOLTAGE SOURCE CURRENTS
    NAME         CURRENT

    V_V1        -1.337E-03
    V_V2         1.337E-03
    V_V3        -7.664E-07
    V_V4        -7.973E-08
    X_U1.vb      7.157E-12
    X_U1.vc      1.101E-11
    X_U1.ve      1.250E-11
    X_U1.vlim   -6.866E-07
    X_U1.vlp    -4.000E-11
    X_U1.vln    -4.000E-11

    TOTAL POWER DISSIPATION   3.21E-02  WATTS


**** 06/30/25 12:32:51 ***** PSpice 24.1.0 (17 April 2025) **** ID# 0 ********

 ** Profile: "SCHEMATIC1-lea"  [ f:\swati\orcad_projects\leadlag-pspicefiles\schematic1\lea.sim ] 


 ****     INITIAL TRANSIENT SOLUTION       TEMPERATURE =   27.000 DEG C

                      MONTE CARLO PASS 51

******************************************************************************



 NODE   VOLTAGE     NODE   VOLTAGE     NODE   VOLTAGE     NODE   VOLTAGE


(   V+)   12.0000  (   V-)  -12.0000  (   VN)    0.0000  (   VP)    0.0000      

( VOUT)    -.0078  (N00266)-775.2E-06 (N00326)-794.5E-06 (X_U1.6) 742.3E-09     

(X_U1.7)    -.0078 (X_U1.8)    -.0078 (X_U1.9)    0.0000 (X_U1.10)    -.6085    

(X_U1.11)   11.9600                   (X_U1.12)   11.9600                       

(X_U1.13)    -.5946                   (X_U1.14)    -.5946                       

(X_U1.53)   11.0000                   (X_U1.54)  -11.0000                       

(X_U1.90)-697.3E-06                   (X_U1.91)   40.0000                       

(X_U1.92)  -40.0000                   (X_U1.99)    0.0000                   




    VOLTAGE SOURCE CURRENTS
    NAME         CURRENT

    V_V1        -1.337E-03
    V_V2         1.337E-03
    V_V3        -7.771E-07
    V_V4        -7.973E-08
    X_U1.vb      7.423E-12
    X_U1.vc      1.101E-11
    X_U1.ve      1.250E-11
    X_U1.vlim   -6.973E-07
    X_U1.vlp    -4.000E-11
    X_U1.vln    -4.000E-11

    TOTAL POWER DISSIPATION   3.21E-02  WATTS


**** 06/30/25 12:32:51 ***** PSpice 24.1.0 (17 April 2025) **** ID# 0 ********

 ** Profile: "SCHEMATIC1-lea"  [ f:\swati\orcad_projects\leadlag-pspicefiles\schematic1\lea.sim ] 


 ****     INITIAL TRANSIENT SOLUTION       TEMPERATURE =   27.000 DEG C

                      MONTE CARLO PASS 52

******************************************************************************



[...]

Pass  969                .0983  ( .48 sigma)  higher  at T =     .0418
                        ( 103.55% of Nominal)

Pass  714                .0981  ( .48 sigma)  higher  at T =     .0776
                        (  92.367% of Nominal)

Pass  697                .0978  ( .48 sigma)  higher  at T =     .0411
                        ( 102.87% of Nominal)

Pass  990                .0978  ( .48 sigma)  higher  at T =     .0684
                        ( 117.72% of Nominal)

Pass  129                .0968  ( .47 sigma)  higher  at T =     .0831
                        (  97.684% of Nominal)

Pass  968                .0968  ( .47 sigma)  lower  at T =     .0506
                        (  96.766% of Nominal)

Pass  111                .0962  ( .47 sigma)  lower  at T =     .0722
                        ( 104.24% of Nominal)

Pass  727                .0961  ( .47 sigma)  lower  at T =     .0619
                        ( 173.59% of Nominal)

Pass  388                .0951  ( .46 sigma)  higher  at T =     .0872
                        (  95.808% of Nominal)

Pass  896                .0949  ( .46 sigma)  lower  at T =     .0683
                        (  82.626% of Nominal)

Pass  907                .0942  ( .46 sigma)  lower  at T =     .0833
                        ( 102.22% of Nominal)

Pass  366                .0941  ( .46 sigma)  higher  at T =     .0727
                        (  96.54 % of Nominal)

Pass  764                .0941  ( .46 sigma)  higher  at T =     .0778
                        (  92.029% of Nominal)

Pass   79                .0936  ( .46 sigma)  lower  at T =     .0492
                        (  97.628% of Nominal)

Pass   69                .0936  ( .46 sigma)  higher  at T =     .0685
                        ( 116.98% of Nominal)

Pass  886                .0936  ( .46 sigma)  lower  at T =     .0387
                        (  98.013% of Nominal)

Pass  252                .0933  ( .45 sigma)  lower  at T =     .0277
                        (  97.604% of Nominal)

Pass  777                .0933  ( .45 sigma)  higher  at T =     .0861
                        (  97.051% of Nominal)

Pass  754                .0931  ( .45 sigma)  lower  at T =     .0724
                        ( 103.74% of Nominal)

Pass  562                .0931  ( .45 sigma)  higher  at T =     .0483
                        ( 102.31% of Nominal)

Pass  220                .0927  ( .45 sigma)  lower  at T =     .049 
                        (  97.678% of Nominal)

Pass  605                .0927  ( .45 sigma)  higher  at T =     .0624
                        (  84.554% of Nominal)

Pass  518                .0916  ( .45 sigma)  higher  at T =     .0775
                        (  93.14 % of Nominal)

Pass    7                .0915  ( .45 sigma)  higher  at T =     .0836
                        (  97.882% of Nominal)

Pass  390                .0912  ( .44 sigma)  higher  at T =     .0774
                        (  93.302% of Nominal)

Pass  961                .0911  ( .44 sigma)  lower  at T =     .0717
                        ( 104.97% of Nominal)

Pass  867                .0908  ( .44 sigma)  higher  at T =     .0726
                        (  96.52 % of Nominal)

Pass  736                .0907  ( .44 sigma)  higher  at T =     .0849
                        (  97.77 % of Nominal)

Pass  142                .0905  ( .44 sigma)  higher  at T =     .0586
                        ( 103.64% of Nominal)

Pass  106                .0903  ( .44 sigma)  lower  at T =     .0729
                        ( 103.2 % of Nominal)

Pass  593                .0902  ( .44 sigma)  higher  at T =     .0774
                        (  93.368% of Nominal)

Pass  600                .0902  ( .44 sigma)  higher  at T =     .0389
                        ( 101.92% of Nominal)

Pass  854                .0901  ( .44 sigma)  higher  at T =     .0597
                        ( 104.37% of Nominal)

Pass  653                .09    ( .44 sigma)  higher  at T =     .0776
                        (  92.87 % of Nominal)

Pass  884                .0899  ( .44 sigma)  lower  at T =     .0835
                        ( 102.09% of Nominal)

Pass  675                .0899  ( .44 sigma)  lower  at T =     .0847
                        ( 102.17% of Nominal)

Pass   93                .0893  ( .44 sigma)  lower  at T =     .0724
                        ( 103.59% of Nominal)

Pass  376                .0892  ( .44 sigma)  higher  at T =     .0277
                        ( 102.29% of Nominal)

Pass  289                .089   ( .43 sigma)  higher  at T =     .0381
                        ( 101.94% of Nominal)

Pass  622                .0888  ( .43 sigma)  lower  at T =     .068 
                        (  82.594% of Nominal)

Pass  551                .0879  ( .43 sigma)  lower  at T =     .051 
                        (  96.552% of Nominal)

Pass  943                .0878  ( .43 sigma)  lower  at T =     .0829
                        ( 102.16% of Nominal)

Pass  735                .0876  ( .43 sigma)  higher  at T =     .0624
                        (  85.405% of Nominal)

Pass  703                .0874  ( .43 sigma)  lower  at T =     .0766
                        ( 104.57% of Nominal)

Pass   19                .0871  ( .42 sigma)  higher  at T =     .0832
                        (  97.936% of Nominal)

Pass  824                .0867  ( .42 sigma)  higher  at T =     .0486
                        ( 102.14% of Nominal)

Pass  232                .0866  ( .42 sigma)  higher  at T =     .0402
                        ( 102.08% of Nominal)

Pass  389                .0863  ( .42 sigma)  higher  at T =     .0834
                        (  97.979% of Nominal)

Pass  670                .0862  ( .42 sigma)  lower  at T =     .0478
                        (  97.797% of Nominal)

Pass  721                .0862  ( .42 sigma)  higher  at T =     .058 
                        ( 103.52% of Nominal)

Pass  700                .086   ( .42 sigma)  higher  at T =     .058 
                        ( 103.51% of Nominal)

Pass  820                .086   ( .42 sigma)  lower  at T =     .0699
                        ( 257.82% of Nominal)

Pass  752                .0859  ( .42 sigma)  lower  at T =     .0419
                        (  96.794% of Nominal)

Pass  502                .0853  ( .42 sigma)  lower  at T =     .0725
                        ( 103.37% of Nominal)

Pass  811                .0846  ( .41 sigma)  lower  at T =     .0831
                        ( 102.03% of Nominal)

Pass  910                .0846  ( .41 sigma)  lower  at T =     .059 
                        (  96.462% of Nominal)

Pass  887                .084   ( .41 sigma)  lower  at T =     .0774
                        ( 106.05% of Nominal)

Pass  587                .0822  ( .40 sigma)  lower  at T =     .0524
                        (  93.347% of Nominal)

Pass  555                .0816  ( .40 sigma)  higher  at T =     .052 
                        ( 105.28% of Nominal)

Pass  674                .0813  ( .40 sigma)  lower  at T =     .0853
                        ( 102.14% of Nominal)

Pass  798                .0813  ( .40 sigma)  higher  at T =     .0726
                        (  96.883% of Nominal)

Pass  267                .081   ( .40 sigma)  higher  at T =     .069 
                        ( 117.31% of Nominal)

Pass  905                .0809  ( .39 sigma)  lower  at T =     .0588
                        (  96.708% of Nominal)

Pass  191                .08    ( .39 sigma)  lower  at T =     .058 
                        (  96.731% of Nominal)

Pass  863                .0799  ( .39 sigma)  lower  at T =     .0828
                        ( 102   % of Nominal)

Pass  984                .0795  ( .39 sigma)  higher  at T =     .04  
                        ( 101.85% of Nominal)

Pass  120                .0791  ( .39 sigma)  higher  at T =     .0512
                        ( 103.3 % of Nominal)

Pass   12                .0782  ( .38 sigma)  lower  at T =     .0847
                        ( 101.89% of Nominal)

Pass  294                .0782  ( .38 sigma)  lower  at T =     .0776
                        ( 106.08% of Nominal)

Pass   43                .078   ( .38 sigma)  lower  at T =     .0502
                        (  97.641% of Nominal)

Pass  579                .0779  ( .38 sigma)  higher  at T =     .0851
                        (  98.029% of Nominal)

Pass  295                .0778  ( .38 sigma)  higher  at T =     .0874
                        (  96.356% of Nominal)

Pass  179                .0774  ( .38 sigma)  lower  at T =     .0176
                        (  96.983% of Nominal)

Pass  238                .077   ( .38 sigma)  higher  at T =     .0591
                        ( 103.25% of Nominal)

Pass   39                .0764  ( .37 sigma)  higher  at T =     .0719
                        (  96.241% of Nominal)

Pass  833                .0753  ( .37 sigma)  lower  at T =     .0731
                        ( 102.56% of Nominal)

Pass  409                .074   ( .36 sigma)  higher  at T =     .0728
                        (  97.348% of Nominal)

Pass  960                .0736  ( .36 sigma)  lower  at T =     .0615
                        (  78.39 % of Nominal)

Pass  756                .0733  ( .36 sigma)  lower  at T =     .0386
                        (  98.441% of Nominal)

Pass  310                .0729  ( .36 sigma)  lower  at T =     .0483
                        (  98.194% of Nominal)

Pass  941                .0715  ( .35 sigma)  higher  at T =     .0621
                        (  74.36 % of Nominal)

Pass  588                .0708  ( .35 sigma)  lower  at T =     .0858
                        ( 102.08% of Nominal)

Pass  401                .0706  ( .34 sigma)  lower  at T =     .0378
                        (  98.413% of Nominal)

Pass  146                .0703  ( .34 sigma)  lower  at T =     .038 
                        (  98.453% of Nominal)

Pass  983                .0702  ( .34 sigma)  lower  at T =     .0828
                        ( 101.74% of Nominal)

Pass  463                .0701  ( .34 sigma)  higher  at T =     .0384
                        ( 101.5 % of Nominal)

Pass  592                .0698  ( .34 sigma)  higher  at T =     .0392
                        ( 101.5 % of Nominal)

Pass  954                .0698  ( .34 sigma)  higher  at T =     .0683
                        ( 112.69% of Nominal)

Pass  132                .0695  ( .34 sigma)  higher  at T =     .0176
                        ( 102.75% of Nominal)

Pass  109                .0689  ( .34 sigma)  higher  at T =     .0864
                        (  97.63 % of Nominal)

Pass  992                .0689  ( .34 sigma)  higher  at T =     .0774
                        (  94.938% of Nominal)

Pass   90                .0685  ( .33 sigma)  higher  at T =     .0848
                        (  98.327% of Nominal)

Pass  245                .0679  ( .33 sigma)  lower  at T =     .0869
                        ( 102.68% of Nominal)

Pass  901                .0673  ( .33 sigma)  higher  at T =     .0394
                        ( 101.47% of Nominal)

Pass  962                .0671  ( .33 sigma)  lower  at T =     .0585
                        (  97.307% of Nominal)

Pass  489                .0664  ( .32 sigma)  higher  at T =     .0624
                        (  88.931% of Nominal)

Pass  461                .0662  ( .32 sigma)  higher  at T =     .0388
                        ( 101.41% of Nominal)

Pass  358                .0661  ( .32 sigma)  lower  at T =     .0593
                        (  97.115% of Nominal)

Pass  636                .0654  ( .32 sigma)  lower  at T =     .0976
                        ( 104.04% of Nominal)

Pass  813                .0648  ( .32 sigma)  higher  at T =     .0389
                        ( 101.38% of Nominal)

Pass  741                .0648  ( .32 sigma)  lower  at T =     .0705
                        ( 111.1 % of Nominal)

Pass  475                .0636  ( .31 sigma)  lower  at T =     .0743
                        ( 102   % of Nominal)

Pass  313                .0634  ( .31 sigma)  lower  at T =     .0777
                        ( 105.12% of Nominal)

Pass  378                .0634  ( .31 sigma)  higher  at T =     .0844
                        (  98.51 % of Nominal)

Pass  167                .0629  ( .31 sigma)  higher  at T =     .0521
                        ( 104.2 % of Nominal)

Pass  830                .0628  ( .31 sigma)  lower  at T =     .0866
                        ( 102.29% of Nominal)

Pass  157                .0619  ( .30 sigma)  higher  at T =     .0778
                        (  94.839% of Nominal)

Pass  183                .0616  ( .30 sigma)  lower  at T =     .0622
                        ( 114.61% of Nominal)

Pass  947                .0614  ( .30 sigma)  lower  at T =     .0828
                        ( 101.53% of Nominal)

Pass  945                .0603  ( .29 sigma)  lower  at T =     .0617
                        (  19.507% of Nominal)

Pass  472                .06    ( .29 sigma)  lower  at T =     .0591
                        (  97.473% of Nominal)

Pass  119                .06    ( .29 sigma)  lower  at T =     .0417
                        (  97.9  % of Nominal)

Pass  712                .0598  ( .29 sigma)  lower  at T =     .0494
                        (  98.453% of Nominal)

Pass  298                .0594  ( .29 sigma)  higher  at T =     .0855
                        (  98.371% of Nominal)

Pass  934                .0589  ( .29 sigma)  lower  at T =     .0387
                        (  98.75 % of Nominal)

Pass   26                .0589  ( .29 sigma)  lower  at T =     .0505
                        (  98.092% of Nominal)

Pass  848                .0587  ( .29 sigma)  lower  at T =     .0415
                        (  98.039% of Nominal)

Pass   68                .0586  ( .29 sigma)  lower  at T =     .0413
                        (  98.158% of Nominal)

Pass  486                .0585  ( .29 sigma)  lower  at T =     .0521
                        (  96.097% of Nominal)

Pass  408                .0579  ( .28 sigma)  lower  at T =     .0839
                        ( 101.33% of Nominal)

Pass  363                .0576  ( .28 sigma)  higher  at T =     .0726
                        (  97.823% of Nominal)

Pass  865                .0575  ( .28 sigma)  higher  at T =     .0973
                        (  96.815% of Nominal)

Pass  850                .0574  ( .28 sigma)  higher  at T =     .0492
                        ( 101.46% of Nominal)

Pass  257                .0564  ( .28 sigma)  higher  at T =     .0775
                        (  95.772% of Nominal)

Pass  739                .0561  ( .27 sigma)  lower  at T =     .0682
                        (  89.641% of Nominal)

Pass   80                .0558  ( .27 sigma)  lower  at T =     .0583
                        (  97.756% of Nominal)

Pass  572                .0551  ( .27 sigma)  higher  at T =     .0866
                        (  98.018% of Nominal)

Pass  158                .055   ( .27 sigma)  higher  at T =     .0481
                        ( 101.37% of Nominal)

Pass  273                .0548  ( .27 sigma)  higher  at T =     .0833
                        (  98.707% of Nominal)

Pass  519                .0547  ( .27 sigma)  higher  at T =     .0858
                        (  98.397% of Nominal)

Pass  341                .0534  ( .26 sigma)  higher  at T =     .0397
                        ( 101.2 % of Nominal)

Pass  221                .0533  ( .26 sigma)  lower  at T =     .0869
                        ( 102.11% of Nominal)

Pass  321                .0519  ( .25 sigma)  higher  at T =     .0505
                        ( 101.71% of Nominal)

Pass  656                .0509  ( .25 sigma)  higher  at T =     .0524
                        ( 104.12% of Nominal)

Pass  685                .0509  ( .25 sigma)  lower  at T =     .038 
                        (  98.881% of Nominal)

Pass   99                .0487  ( .24 sigma)  higher  at T =     .0722
                        (  97.857% of Nominal)

Pass  411                .0485  ( .24 sigma)  higher  at T =     .0523
                        ( 103.68% of Nominal)

Pass  568                .0484  ( .24 sigma)  lower  at T =     .0725
                        ( 101.88% of Nominal)

Pass  539                .048   ( .23 sigma)  higher  at T =     .0615
                        ( 116.73% of Nominal)

Pass  993                .0471  ( .23 sigma)  lower  at T =     .0872
                        ( 102.04% of Nominal)

Pass  889                .0471  ( .23 sigma)  lower  at T =     .0711
                        ( 103.92% of Nominal)

Pass  459                .0468  ( .23 sigma)  higher  at T =     .0381
                        ( 101.02% of Nominal)

Pass  692                .0465  ( .23 sigma)  lower  at T =     .0581
                        (  98.11 % of Nominal)

Pass  433                .0461  ( .22 sigma)  lower  at T =     .052 
                        (  97.104% of Nominal)

Pass  936                .045   ( .22 sigma)  lower  at T =     .0777
                        ( 103.63% of Nominal)

Pass  480                .0433  ( .21 sigma)  lower  at T =     .0874
                        ( 102.03% of Nominal)

Pass   97                .0427  ( .21 sigma)  higher  at T =     .0585
                        ( 101.72% of Nominal)

Pass  272                .0415  ( .20 sigma)  higher  at T =     .0828
                        (  98.971% of Nominal)

Pass  352                .0409  ( .20 sigma)  higher  at T =     .0378
                        ( 100.92% of Nominal)

Pass  660                .0404  ( .20 sigma)  higher  at T =     .0693
                        ( 112.31% of Nominal)

Pass  668                .0404  ( .20 sigma)  higher  at T =     .0777
                        (  96.74 % of Nominal)

Pass  995                .0384  ( .19 sigma)  lower  at T =     .0612
                        (  93.709% of Nominal)

Pass  569                .0364  ( .18 sigma)  higher  at T =     .087 
                        (  98.496% of Nominal)

Pass  185                .0362  ( .18 sigma)  lower  at T =     .0582
                        (  98.536% of Nominal)

Pass  192                .0331  ( .16 sigma)  lower  at T =     .0522
                        (  97.648% of Nominal)

Pass  657                .0324  ( .16 sigma)  higher  at T =     .0384
                        ( 100.69% of Nominal)

Pass  908                .0323  ( .16 sigma)  higher  at T =     .0487
                        ( 100.8 % of Nominal)

Pass  186                .0321  ( .16 sigma)  lower  at T =     .0418
                        (  98.822% of Nominal)

Pass  795                .0318  ( .16 sigma)  lower  at T =     .0714
                        ( 102.17% of Nominal)

Pass  818                .0313  ( .15 sigma)  higher  at T =     .0828
                        (  99.223% of Nominal)

Pass  755                .029   ( .14 sigma)  lower  at T =     .0777
                        ( 102.34% of Nominal)

Pass  556                .0276  ( .13 sigma)  higher  at T =     .0405
                        ( 100.7 % of Nominal)

Pass  972                .0252  ( .12 sigma)  higher  at T =     .0831
                        (  99.395% of Nominal)

Pass  144                .0206  ( .10 sigma)  lower  at T =     .0871
                        ( 100.87% of Nominal)

Pass  719                .0166  ( .08 sigma)  lower  at T =     .0871
                        ( 100.71% of Nominal)

Pass   72                .0104  ( .05 sigma)  lower  at T =     .0772
                        ( 100.7 % of Nominal)



          JOB CONCLUDED

**** 06/30/25 12:32:51 ***** PSpice 24.1.0 (17 April 2025) **** ID# 0 ********

 ** Profile: "SCHEMATIC1-lea"  [ f:\swati\orcad_projects\leadlag-pspicefiles\schematic1\lea.sim ] 


 ****     JOB STATISTICS SUMMARY


******************************************************************************



  Total job time (using Solver 1)   =       46.22
