**** Analysis Setup ****

**** 06/16/25 12:56:25 ***** PSpice 24.1.0 (17 April 2025) **** ID# 0 ********

 ** Profile: "SCHEMATIC1-mul"  [ f:\simran_intern\orcade\analog_multiplier-PSpiceFiles\SCHEMATIC1\mul.sim ] 


 ****     CIRCUIT DESCRIPTION


******************************************************************************




** Creating circuit file "mul.cir" 
** WARNING: THIS AUTOMATICALLY GENERATED FILE MAY BE OVERWRITTEN BY SUBSEQUENT SIMULATIONS

*Libraries: 
* Profile Libraries :
* Local Libraries :
* From [PSPICE NETLIST] section of C:\Users\Rahul Bhattacharya\AppData\Roaming\SPB_Data\cdssetup\OrCAD_PSpice\24.1.0\PSpice.ini file:
.lib "nom.lib" 

*Analysis directives: 
.TRAN  0 10ms 0 50u 
.OPTIONS ADVCONV
.PROBE64 V(alias(*)) I(alias(*)) W(alias(*)) D(alias(*)) NOISE(alias(*)) 
.INC "..\SCHEMATIC1.net" 



**** INCLUDING SCHEMATIC1.net ****
* source ANALOG_MULTIPLIER
R_R51         N05955 VY R_R51 250k TC=0,0 
.model        R_R51 RES R=1 DEV=5% TC1=0 TC2=0
X_U6B         0 N05955 N06251 N05921 VSS awbmc33172
R_R22         N05921 VDD R_R22 1k TC=0,0 
.model        R_R22 RES R=1 DEV=5% TC1=0 TC2=0
R_R21         N05413 VDD R_R21 1k TC=0,0 
.model        R_R21 RES R=1 DEV=5% TC1=0 TC2=0
X_U7B         N05623 N05881 VOUT VDD VSS awbmc33172
X_U3B         VX N05563 N05563 N05413 VSS awbmc33172
X_U4B         VY N05575 N05575 N05413 VSS awbmc33172
R_R12         N06239 N06251 R_R12 10k TC=0,0 
.model        R_R12 RES R=1 DEV=5% TC1=0 TC2=0
R_R52         N06251 N05955 R_R52 250k TC=0,0 
.model        R_R52 RES R=1 DEV=5% TC1=0 TC2=0
V_V6         VY 0  
+SIN 0 0.2 100 0 0 0
R_R31         N05413 N05623 R_R31 250k TC=0,0 
.model        R_R31 RES R=1 DEV=5% TC1=0 TC2=0
R_R32         N05921 N05881 R_R32 250k TC=0,0 
.model        R_R32 RES R=1 DEV=5% TC1=0 TC2=0
X_U5B         VX N06239 N06239 N05921 VSS awbmc33172
R_R11         N05563 N05575 R_R11 10k TC=0,0 
.model        R_R11 RES R=1 DEV=5% TC1=0 TC2=0
R_R41         N05623 0 R_R41 500k TC=0,0 
.model        R_R41 RES R=1 DEV=5% TC1=0 TC2=0
V_V1         VDD 0 2.4
V_V2         VSS 0 -2.4
V_V7         VX 0  
+SIN 0 0.2 10k 0 0 0
R_R42         N05881 VOUT R_R42 500k TC=0,0 
.model        R_R42 RES R=1 DEV=5% TC1=0 TC2=0

**** RESUMING mul.cir ****
.END

**** 06/16/25 12:56:25 ***** PSpice 24.1.0 (17 April 2025) **** ID# 0 ********

 ** Profile: "SCHEMATIC1-mul"  [ f:\simran_intern\orcade\analog_multiplier-PSpiceFiles\SCHEMATIC1\mul.sim ] 


 ****     Diode MODEL PARAMETERS


******************************************************************************




               X_U6B.M1M33174_D4               X_U6B.M2MID     X_U6B.M3MMID    
          IS   10.000000E-15                   10.000000E-15   10.000000E-15 
           N     .7812                                                       
          EG     .1                                              .1          
         XTI    0                                                            


               X_U6B.M4M33174_DP 
          IS   10.000000E-15 
           N     .147        
          EG     .1          
         XTI    0            


               X_U7B.M1M33174_D4               X_U7B.M2MID     X_U7B.M3MMID    
          IS   10.000000E-15                   10.000000E-15   10.000000E-15 
           N     .7812                                                       
          EG     .1                                              .1          
         XTI    0                                                            


               X_U7B.M4M33174_DP 
          IS   10.000000E-15 
           N     .147        
          EG     .1          
         XTI    0            


               X_U3B.M1M33174_D4               X_U3B.M2MID     X_U3B.M3MMID    
          IS   10.000000E-15                   10.000000E-15   10.000000E-15 
           N     .7812                                                       
          EG     .1                                              .1          
         XTI    0                                                            


               X_U3B.M4M33174_DP 
          IS   10.000000E-15 
           N     .147        
          EG     .1          
         XTI    0            


               X_U4B.M1M33174_D4               X_U4B.M2MID     X_U4B.M3MMID    
          IS   10.000000E-15                   10.000000E-15   10.000000E-15 
           N     .7812                                                       
          EG     .1                                              .1          
         XTI    0                                                            


               X_U4B.M4M33174_DP 
          IS   10.000000E-15 
           N     .147        
          EG     .1          
         XTI    0            


               X_U5B.M1M33174_D4               X_U5B.M2MID     X_U5B.M3MMID    
          IS   10.000000E-15                   10.000000E-15   10.000000E-15 
           N     .7812                                                       
          EG     .1                                              .1          
         XTI    0                                                            


               X_U5B.M4M33174_DP 
          IS   10.000000E-15 
           N     .147        
          EG     .1          
         XTI    0            


**** 06/16/25 12:56:25 ***** PSpice 24.1.0 (17 April 2025) **** ID# 0 ********

 ** Profile: "SCHEMATIC1-mul"  [ f:\simran_intern\orcade\analog_multiplier-PSpiceFiles\SCHEMATIC1\mul.sim ] 


 ****     Resistor MODEL PARAMETERS


******************************************************************************




               R_R51           R_R22           R_R21           R_R12           
           R    1               1               1               1            


               R_R52           R_R31           R_R32           R_R11           
           R    1               1               1               1            


               R_R41           R_R42           
           R    1               1            

**** Param: R_R51.Value = 250k
**** Param: R_R22.Value = 1k
**** Param: R_R21.Value = 1k
**** Param: R_R12.Value = 10k
**** Param: R_R52.Value = 250k
**** Param: R_R31.Value = 250k
**** Param: R_R32.Value = 250k
**** Param: R_R11.Value = 10k
**** Param: R_R41.Value = 500k
**** Param: R_R42.Value = 500k

**** Command: doALL

**** 06/16/25 12:56:25 ***** PSpice 24.1.0 (17 April 2025) **** ID# 0 ********

 ** Profile: "SCHEMATIC1-mul"  [ f:\simran_intern\orcade\analog_multiplier-PSpiceFiles\SCHEMATIC1\mul.sim ] 


 ****     INITIAL TRANSIENT SOLUTION       TEMPERATURE =   27.000 DEG C

 ****     Sensitivity nominal run          


******************************************************************************



 NODE   VOLTAGE     NODE   VOLTAGE     NODE   VOLTAGE     NODE   VOLTAGE


(   VX)    0.0000  (   VY)    0.0000  (  VDD)    2.4000  (  VSS)   -2.4000      

( VOUT)     .0166  (N05413)    2.3275 (N05563)     .0018 (N05575)     .0018     

(N05623)    1.5569 (N05881)    1.5586 (N05921)    2.3275 (N05955)     .0018     

(N06239)     .0018 (N06251)     .0014 (X_U3B.1)    -.0363                       

(X_U3B.3)    -.0363                   (X_U3B.4)    -.0363                       

(X_U3B.5)    4.9637                   (X_U3B.6)    -.0344                       

(X_U3B.7)    -.0362                   (X_U3B.8)     .0018                       

(X_U3B.9)    1.9402                   (X_U4B.1)    -.0363                       

(X_U4B.3)    -.0363                   (X_U4B.4)    -.0363                       

(X_U4B.5)    4.9637                   (X_U4B.6)    -.0344                       

(X_U4B.7)    -.0362                   (X_U4B.8)     .0018                       

(X_U4B.9)    1.9402                   (X_U5B.1)    -.0363                       

(X_U5B.3)    -.0363                   (X_U5B.4)    -.0363                       

(X_U5B.5)    4.9637                   (X_U5B.6)    -.0344                       

(X_U5B.7)    -.0362                   (X_U5B.8)     .0018                       

(X_U5B.9)    1.9208                   (X_U6B.1)    -.0363                       

(X_U6B.3)    -.0363                   (X_U6B.4)    -.0363                       

(X_U6B.5)    4.9637                   (X_U6B.6)    -.0344                       

(X_U6B.7)    -.0362                   (X_U6B.8)     .0014                       

(X_U6B.9)    1.9990                   (X_U7B.1) 99.05E-09                       

(X_U7B.3) 99.05E-09                   (X_U7B.4)-609.7E-09                       

(X_U7B.5)    5.0000                   (X_U7B.6)     .0019                       

(X_U7B.7) 17.10E-06                   (X_U7B.8)     .0166                       

(X_U7B.9)    2.9052                   (X_U3B.11)     .0018                      

(X_U3B.12) -191.0400                  (X_U3B.15)     .0018                      

(X_U3B.17) 893.0E-06                  (X_U3B.18)     .0018                      

(X_U3B.19)   -5.0363                  (X_U3B.20)   -1.6000                      

(X_U3B.22) 47.28E-06                  (X_U3B.23)    2.3275                      

(X_U3B.25) 893.0E-06                  (X_U3B.26)    -.0363                      

(X_U3B.28)   99.9640                  (X_U3B.34)     .9475                      

(X_U3B.37)     .0018                  (X_U3B.41)     .0018                      

(X_U4B.11)     .0018                  (X_U4B.12) -191.0400                      

(X_U4B.15)     .0018                  (X_U4B.17) 893.0E-06                      

(X_U4B.18)     .0018                  (X_U4B.19)   -5.0363                      

(X_U4B.20)   -1.6000                  (X_U4B.22) 47.28E-06                      

(X_U4B.23)    2.3275                  (X_U4B.25) 893.0E-06                      

(X_U4B.26)    -.0363                  (X_U4B.28)   99.9640                      

(X_U4B.34)     .9475                  (X_U4B.37)     .0018                      

(X_U4B.41)     .0018                  (X_U5B.11)     .0018                      

(X_U5B.12) -191.0400                  (X_U5B.15)     .0018                      

(X_U5B.17) 893.0E-06                  (X_U5B.18)     .0018                      

(X_U5B.19)   -5.0363                  (X_U5B.20)   -1.6000                      

(X_U5B.22) 47.28E-06                  (X_U5B.23)    2.3275                      

(X_U5B.25) 893.0E-06                  (X_U5B.26)    -.0363                      

(X_U5B.28)   99.9640                  (X_U5B.34)     .9475                      

(X_U5B.37)     .0018                  (X_U5B.41)     .0018                      

(X_U6B.11)     .0014                  (X_U6B.12) -191.0400                      

(X_U6B.15)     .0014                  (X_U6B.17) 893.0E-06                      

(X_U6B.18)     .0018                  (X_U6B.19)   -5.0363                      

(X_U6B.20)   -1.6000                  (X_U6B.22) 47.28E-06                      

(X_U6B.23)    2.3275                  (X_U6B.25) 893.0E-06                      

(X_U6B.26)    -.0363                  (X_U6B.28)   99.9640                      

(X_U6B.34)     .9475                  (X_U6B.37)     .0014                      

(X_U6B.41)     .0014                  (X_U7B.11)     .0165                      

(X_U7B.12) -191.0000                  (X_U7B.15)     .0166                      

(X_U7B.17)    1.5578                  (X_U7B.18)    1.5587                      

(X_U7B.19)   -5.0000                  (X_U7B.20)   -1.6000                      

(X_U7B.22)    1.5569                  (X_U7B.23)    2.4000                      

(X_U7B.25)    1.5578                  (X_U7B.26) 1.099E-06                      

(X_U7B.28)  100.0000                  (X_U7B.34)    1.0200                      

(X_U7B.37)     .0166                  (X_U7B.41)     .0166                  




    VOLTAGE SOURCE CURRENTS
    NAME         CURRENT

    V_V6         3.857E-08
    V_V1        -1.802E-04
    V_V2         1.770E-04
    V_V7         6.286E-08
    X_U6B.VV262  -5.010E-12
    X_U6B.VV261  -1.000E-10
    X_U6B.VV256  -1.910E-10
    X_U6B.VV245   1.611E-12
    X_U6B.VFI100  -3.282E-09
    X_U6B.VIC2  -3.672E-08
    X_U6B.VV219   9.561E-13
    X_U6B.VV234  -5.010E-12
    X_U7B.VV262  -5.010E-12
    X_U7B.VV261  -1.000E-10
    X_U7B.VV256  -1.910E-10
    X_U7B.VV245   1.627E-12
    X_U7B.VFI100   3.044E-06
    X_U7B.VIC2  -3.084E-06
    X_U7B.VV219   1.013E-12
    X_U7B.VV234  -5.010E-12
    X_U3B.VV262  -5.010E-12
    X_U3B.VV261  -1.000E-10
    X_U3B.VV256  -1.910E-10
    X_U3B.VV245   1.612E-12
    X_U3B.VFI100  -3.181E-08
    X_U3B.VIC2  -8.190E-09
    X_U3B.VV219   9.557E-13
    X_U3B.VV234  -5.010E-12
    X_U4B.VV262  -5.010E-12
    X_U4B.VV261  -1.000E-10
    X_U4B.VV256  -1.910E-10
    X_U4B.VV245   1.612E-12
    X_U4B.VFI100  -3.181E-08
    X_U4B.VIC2  -8.190E-09
    X_U4B.VV219   9.557E-13
    X_U4B.VV234  -5.010E-12
    X_U5B.VV262  -5.010E-12
    X_U5B.VV261  -1.000E-10
    X_U5B.VV256  -1.910E-10
    X_U5B.VV245   1.612E-12
    X_U5B.VFI100  -6.748E-08
    X_U5B.VIC2   2.748E-08
    X_U5B.VV219   9.557E-13
    X_U5B.VV234  -5.010E-12

    TOTAL POWER DISSIPATION   8.57E-04  WATTS

**** Param: R_R51.Value = 255k
**** Param: R_R22.Value = 1k
**** Param: R_R21.Value = 1k
**** Param: R_R12.Value = 10k
**** Param: R_R52.Value = 250k
**** Param: R_R31.Value = 250k
**** Param: R_R32.Value = 250k
**** Param: R_R11.Value = 10k
**** Param: R_R41.Value = 500k
**** Param: R_R42.Value = 500k

**** Command: doALL

**** 06/16/25 12:56:25 ***** PSpice 24.1.0 (17 April 2025) **** ID# 0 ********

 ** Profile: "SCHEMATIC1-mul"  [ f:\simran_intern\orcade\analog_multiplier-PSpiceFiles\SCHEMATIC1\mul.sim ] 


 ****     INITIAL TRANSIENT SOLUTION       TEMPERATURE =   27.000 DEG C

 ****     Sensitivity run 1                


******************************************************************************



 NODE   VOLTAGE     NODE   VOLTAGE     NODE   VOLTAGE     NODE   VOLTAGE


(   VX)    0.0000  (   VY)    0.0000  (  VDD)    2.4000  (  VSS)   -2.4000      

( VOUT)     .0166  (N05413)    2.3275 (N05563)     .0018 (N05575)     .0018     

(N05623)    1.5569 (N05881)    1.5586 (N05921)    2.3275 (N05955)     .0018     

(N06239)     .0018 (N06251)     .0014 (X_U3B.1)    -.0363                       

(X_U3B.3)    -.0363                   (X_U3B.4)    -.0363                       

(X_U3B.5)    4.9637                   (X_U3B.6)    -.0344                       

(X_U3B.7)    -.0362                   (X_U3B.8)     .0018                       

(X_U3B.9)    1.9402                   (X_U4B.1)    -.0363                       

(X_U4B.3)    -.0363                   (X_U4B.4)    -.0363                       

(X_U4B.5)    4.9637                   (X_U4B.6)    -.0344                       

(X_U4B.7)    -.0362                   (X_U4B.8)     .0018                       

(X_U4B.9)    1.9402                   (X_U5B.1)    -.0363                       

(X_U5B.3)    -.0363                   (X_U5B.4)    -.0363                       

(X_U5B.5)    4.9637                   (X_U5B.6)    -.0344                       

(X_U5B.7)    -.0362                   (X_U5B.8)     .0018                       

(X_U5B.9)    1.9195                   (X_U6B.1)    -.0363                       

(X_U6B.3)    -.0363                   (X_U6B.4)    -.0363                       

(X_U6B.5)    4.9637                   (X_U6B.6)    -.0344                       

(X_U6B.7)    -.0362                   (X_U6B.8)     .0014                       

(X_U6B.9)    2.5986                   (X_U7B.1) 99.05E-09                       

(X_U7B.3) 99.05E-09                   (X_U7B.4)-609.7E-09                       

(X_U7B.5)    5.0000                   (X_U7B.6)     .0019                       

(X_U7B.7) 17.10E-06                   (X_U7B.8)     .0166                       

(X_U7B.9)    2.9052                   (X_U3B.11)     .0018                      

(X_U3B.12) -191.0400                  (X_U3B.15)     .0018                      

(X_U3B.17) 893.0E-06                  (X_U3B.18)     .0018                      

(X_U3B.19)   -5.0363                  (X_U3B.20)   -1.6000                      

(X_U3B.22) 47.28E-06                  (X_U3B.23)    2.3275                      

(X_U3B.25) 893.0E-06                  (X_U3B.26)    -.0363                      

(X_U3B.28)   99.9640                  (X_U3B.34)     .9475                      

(X_U3B.37)     .0018                  (X_U3B.41)     .0018                      

(X_U4B.11)     .0018                  (X_U4B.12) -191.0400                      

(X_U4B.15)     .0018                  (X_U4B.17) 893.0E-06                      

(X_U4B.18)     .0018                  (X_U4B.19)   -5.0363                      

(X_U4B.20)   -1.6000                  (X_U4B.22) 47.28E-06                      

(X_U4B.23)    2.3275                  (X_U4B.25) 893.0E-06                      

(X_U4B.26)    -.0363                  (X_U4B.28)   99.9640                      

(X_U4B.34)     .9492                  (X_U4B.37)     .0018                      

(X_U4B.41)     .0018                  (X_U5B.11)     .0018                      

(X_U5B.12) -191.0400                  (X_U5B.15)     .0018                      

(X_U5B.17) 893.0E-06                  (X_U5B.18)     .0018                      

(X_U5B.19)   -5.0363                  (X_U5B.20)   -1.6000                      

(X_U5B.22) 47.28E-06                  (X_U5B.23)    2.3275                      

(X_U5B.25) 893.0E-06                  (X_U5B.26)    -.0363                      

(X_U5B.28)   99.9640                  (X_U5B.34)     .9475                      

(X_U5B.37)     .0018                  (X_U5B.41)     .0018                      

(X_U6B.11)     .0014                  (X_U6B.12) -191.0400                      

(X_U6B.15)     .0014                  (X_U6B.17) 893.0E-06                      

(X_U6B.18)     .0018                  (X_U6B.19)   -5.0363                      

(X_U6B.20)   -1.6000                  (X_U6B.22) 47.28E-06                      

(X_U6B.23)    2.3275                  (X_U6B.25) 893.0E-06                      

(X_U6B.26)    -.0363                  (X_U6B.28)   99.9640                      

(X_U6B.34)     .9475                  (X_U6B.37)     .0014                      

(X_U6B.41)     .0014                  (X_U7B.11)     .0165                      

(X_U7B.12) -191.0000                  (X_U7B.15)     .0166                      

(X_U7B.17)    1.5578                  (X_U7B.18)    1.5587                      

(X_U7B.19)   -5.0000                  (X_U7B.20)   -1.6000                      

(X_U7B.22)    1.5569                  (X_U7B.23)    2.4000                      

(X_U7B.25)    1.5578                  (X_U7B.26) 1.099E-06                      

(X_U7B.28)  100.0000                  (X_U7B.34)    1.0200                      

(X_U7B.37)     .0166                  (X_U7B.41)     .0166                  




    VOLTAGE SOURCE CURRENTS
    NAME         CURRENT

    V_V6         3.843E-08
    V_V1        -1.802E-04
    V_V2         1.770E-04
    V_V7         6.286E-08
    X_U6B.VV262  -5.010E-12
    X_U6B.VV261  -1.000E-10
    X_U6B.VV256  -1.910E-10
    X_U6B.VV245   1.611E-12
    X_U6B.VFI100   3.602E-10
    X_U6B.VIC2  -4.036E-08
    X_U6B.VV219   9.561E-13
    X_U6B.VV234  -5.010E-12
    X_U7B.VV262  -5.010E-12
    X_U7B.VV261  -1.000E-10
    X_U7B.VV256  -1.910E-10
    X_U7B.VV245   1.627E-12
    X_U7B.VFI100   3.044E-06
    X_U7B.VIC2  -3.084E-06
    X_U7B.VV219   1.013E-12
    X_U7B.VV234  -5.010E-12
    X_U3B.VV262  -5.010E-12
    X_U3B.VV261  -1.000E-10
    X_U3B.VV256  -1.910E-10
    X_U3B.VV245   1.612E-12
    X_U3B.VFI100  -3.181E-08
    X_U3B.VIC2  -8.190E-09
    X_U3B.VV219   9.557E-13
    X_U3B.VV234  -5.010E-12
    X_U4B.VV262  -5.010E-12
    X_U4B.VV261  -1.000E-10
    X_U4B.VV256  -1.910E-10
    X_U4B.VV245   1.612E-12
    X_U4B.VFI100  -3.181E-08
    X_U4B.VIC2  -8.190E-09
    X_U4B.VV219   9.575E-13
    X_U4B.VV234  -5.010E-12
    X_U5B.VV262  -5.010E-12
    X_U5B.VV261  -1.000E-10
    X_U5B.VV256  -1.910E-10
    X_U5B.VV245   1.612E-12
    X_U5B.VFI100  -7.098E-08
    X_U5B.VIC2   3.098E-08
    X_U5B.VV219   9.557E-13
    X_U5B.VV234  -5.010E-12

    TOTAL POWER DISSIPATION   8.57E-04  WATTS

**** Param: R_R51.Value = 250k
**** Param: R_R22.Value = 1.02000000000000k
**** Param: R_R21.Value = 1k
**** Param: R_R12.Value = 10k
**** Param: R_R52.Value = 250k
**** Param: R_R31.Value = 250k
**** Param: R_R32.Value = 250k
**** Param: R_R11.Value = 10k
**** Param: R_R41.Value = 500k
**** Param: R_R42.Value = 500k

**** Command: doALL

**** 06/16/25 12:56:25 ***** PSpice 24.1.0 (17 April 2025) **** ID# 0 ********

 ** Profile: "SCHEMATIC1-mul"  [ f:\simran_intern\orcade\analog_multiplier-PSpiceFiles\SCHEMATIC1\mul.sim ] 


 ****     INITIAL TRANSIENT SOLUTION       TEMPERATURE =   27.000 DEG C

 ****     Sensitivity run 2                


******************************************************************************



 NODE   VOLTAGE     NODE   VOLTAGE     NODE   VOLTAGE     NODE   VOLTAGE


(   VX)    0.0000  (   VY)    0.0000  (  VDD)    2.4000  (  VSS)   -2.4000      

( VOUT)     .0194  (N05413)    2.3275 (N05563)     .0018 (N05575)     .0018     

(N05623)    1.5569 (N05881)    1.5586 (N05921)    2.3261 (N05955)     .0018     

(N06239)     .0018 (N06251)     .0014 (X_U3B.1)    -.0363                       

(X_U3B.3)    -.0363                   (X_U3B.4)    -.0363                       

(X_U3B.5)    4.9637                   (X_U3B.6)    -.0344                       

(X_U3B.7)    -.0362                   (X_U3B.8)     .0018                       

(X_U3B.9)    1.9402                   (X_U4B.1)    -.0363                       

(X_U4B.3)    -.0363                   (X_U4B.4)    -.0363                       

(X_U4B.5)    4.9637                   (X_U4B.6)    -.0344                       

(X_U4B.7)    -.0362                   (X_U4B.8)     .0018                       

(X_U4B.9)    1.9402                   (X_U5B.1)    -.0370                       

(X_U5B.3)    -.0370                   (X_U5B.4)    -.0370                       

(X_U5B.5)    4.9630                   (X_U5B.6)    -.0351                       

(X_U5B.7)    -.0369                   (X_U5B.8)     .0018                       

(X_U5B.9)    1.9194                   (X_U6B.1)    -.0370                       

(X_U6B.3)    -.0370                   (X_U6B.4)    -.0370                       

(X_U6B.5)    4.9630                   (X_U6B.6)    -.0351                       

(X_U6B.7)    -.0369                   (X_U6B.8)     .0014                       

(X_U6B.9)    1.9975                   (X_U7B.1) 99.04E-09                       

(X_U7B.3) 99.04E-09                   (X_U7B.4)-733.5E-09                       

(X_U7B.5)    5.0000                   (X_U7B.6)     .0019                       

(X_U7B.7) 20.07E-06                   (X_U7B.8)     .0194                       

(X_U7B.9)    2.9052                   (X_U3B.11)     .0018                      

(X_U3B.12) -191.0400                  (X_U3B.15)     .0018                      

(X_U3B.17) 893.0E-06                  (X_U3B.18)     .0018                      

(X_U3B.19)   -5.0363                  (X_U3B.20)   -1.6000                      

(X_U3B.22) 47.28E-06                  (X_U3B.23)    2.3275                      

(X_U3B.25) 893.0E-06                  (X_U3B.26)    -.0363                      

(X_U3B.28)   99.9640                  (X_U3B.34)     .9475                      

(X_U3B.37)     .0018                  (X_U3B.41)     .0018                      

(X_U4B.11)     .0018                  (X_U4B.12) -191.0400                      

(X_U4B.15)     .0018                  (X_U4B.17) 893.0E-06                      

(X_U4B.18)     .0018                  (X_U4B.19)   -5.0363                      

(X_U4B.20)   -1.6000                  (X_U4B.22) 47.28E-06                      

(X_U4B.23)    2.3275                  (X_U4B.25) 893.0E-06                      

(X_U4B.26)    -.0363                  (X_U4B.28)   99.9640                      

(X_U4B.34)     .9457                  (X_U4B.37)     .0018                      

(X_U4B.41)     .0018                  (X_U5B.11)     .0018                      

(X_U5B.12) -191.0400                  (X_U5B.15)     .0018                      

(X_U5B.17) 892.9E-06                  (X_U5B.18)     .0018                      

(X_U5B.19)   -5.0370                  (X_U5B.20)   -1.6000                      

(X_U5B.22) 47.26E-06                  (X_U5B.23)    2.3261                      

(X_U5B.25) 892.9E-06                  (X_U5B.26)    -.0370                      

(X_U5B.28)   99.9630                  (X_U5B.34)     .9461                      

(X_U5B.37)     .0018                  (X_U5B.41)     .0018                      

(X_U6B.11)     .0014                  (X_U6B.12) -191.0400                      

(X_U6B.15)     .0014                  (X_U6B.17) 892.9E-06                      

(X_U6B.18)     .0018                  (X_U6B.19)   -5.0370                      

(X_U6B.20)   -1.6000                  (X_U6B.22) 47.26E-06                      

(X_U6B.23)    2.3261                  (X_U6B.25) 892.9E-06                      

(X_U6B.26)    -.0370                  (X_U6B.28)   99.9630                      

(X_U6B.34)     .9461                  (X_U6B.37)     .0014                      

(X_U6B.41)     .0014                  (X_U7B.11)     .0194                      

(X_U7B.12) -191.0000                  (X_U7B.15)     .0194                      

(X_U7B.17)    1.5578                  (X_U7B.18)    1.5587                      

(X_U7B.19)   -5.0000                  (X_U7B.20)   -1.6000                      

(X_U7B.22)    1.5569                  (X_U7B.23)    2.4000                      

(X_U7B.25)    1.5578                  (X_U7B.26) 1.099E-06                      

(X_U7B.28)  100.0000                  (X_U7B.34)    1.0200                      

(X_U7B.37)     .0194                  (X_U7B.41)     .0194                  




    VOLTAGE SOURCE CURRENTS
    NAME         CURRENT

    V_V6         3.857E-08
    V_V1        -1.802E-04
    V_V2         1.769E-04
    V_V7         6.286E-08
    X_U6B.VV262  -5.010E-12
    X_U6B.VV261  -1.000E-10
    X_U6B.VV256  -1.910E-10
    X_U6B.VV245   1.611E-12
    X_U6B.VFI100  -3.283E-09
    X_U6B.VIC2  -3.672E-08
    X_U6B.VV219   9.546E-13
    X_U6B.VV234  -5.010E-12
    X_U7B.VV262  -5.010E-12
    X_U7B.VV261  -1.000E-10
    X_U7B.VV256  -1.910E-10
    X_U7B.VV245   1.629E-12
    X_U7B.VFI100   3.038E-06
    X_U7B.VIC2  -3.078E-06
    X_U7B.VV219   1.011E-12
    X_U7B.VV234  -5.010E-12
    X_U3B.VV262  -5.010E-12
    X_U3B.VV261  -1.000E-10
    X_U3B.VV256  -1.910E-10
    X_U3B.VV245   1.612E-12
    X_U3B.VFI100  -3.181E-08
    X_U3B.VIC2  -8.190E-09
    X_U3B.VV219   9.557E-13
    X_U3B.VV234  -5.010E-12
    X_U4B.VV262  -5.010E-12
    X_U4B.VV261  -1.000E-10
    X_U4B.VV256  -1.910E-10
    X_U4B.VV245   1.612E-12
    X_U4B.VFI100  -3.181E-08
    X_U4B.VIC2  -8.190E-09
    X_U4B.VV219   9.539E-13
    X_U4B.VV234  -5.010E-12
    X_U5B.VV262  -5.010E-12
    X_U5B.VV261  -1.000E-10
    X_U5B.VV256  -1.910E-10
    X_U5B.VV245   1.612E-12
    X_U5B.VFI100  -6.749E-08
    X_U5B.VIC2   2.749E-08
    X_U5B.VV219   9.543E-13
    X_U5B.VV234  -5.010E-12

    TOTAL POWER DISSIPATION   8.57E-04  WATTS

**** Param: R_R51.Value = 250k
**** Param: R_R22.Value = 1k
**** Param: R_R21.Value = 1.02000000000000k
**** Param: R_R12.Value = 10k
**** Param: R_R52.Value = 250k
**** Param: R_R31.Value = 250k
**** Param: R_R32.Value = 250k
**** Param: R_R11.Value = 10k
**** Param: R_R41.Value = 500k
**** Param: R_R42.Value = 500k

**** Command: doALL

**** 06/16/25 12:56:25 ***** PSpice 24.1.0 (17 April 2025) **** ID# 0 ********

 ** Profile: "SCHEMATIC1-mul"  [ f:\simran_intern\orcade\analog_multiplier-PSpiceFiles\SCHEMATIC1\mul.sim ] 


 ****     INITIAL TRANSIENT SOLUTION       TEMPERATURE =   27.000 DEG C

 ****     Sensitivity run 3                


******************************************************************************



 NODE   VOLTAGE     NODE   VOLTAGE     NODE   VOLTAGE     NODE   VOLTAGE


(   VX)    0.0000  (   VY)    0.0000  (  VDD)    2.4000  (  VSS)   -2.4000      

( VOUT)     .0138  (N05413)    2.3261 (N05563)     .0018 (N05575)     .0018     

(N05623)    1.5559 (N05881)    1.5577 (N05921)    2.3275 (N05955)     .0018     

(N06239)     .0018 (N06251)     .0014 (X_U3B.1)    -.0370                       

(X_U3B.3)    -.0370                   (X_U3B.4)    -.0370                       

(X_U3B.5)    4.9630                   (X_U3B.6)    -.0351                       

(X_U3B.7)    -.0369                   (X_U3B.8)     .0018                       

(X_U3B.9)    1.9388                   (X_U4B.1)    -.0370                       

(X_U4B.3)    -.0370                   (X_U4B.4)    -.0370                       

(X_U4B.5)    4.9630                   (X_U4B.6)    -.0351                       

(X_U4B.7)    -.0369                   (X_U4B.8)     .0018                       

(X_U4B.9)    1.9388                   (X_U5B.1)    -.0363                       

(X_U5B.3)    -.0363                   (X_U5B.4)    -.0363                       

(X_U5B.5)    4.9637                   (X_U5B.6)    -.0344                       

(X_U5B.7)    -.0362                   (X_U5B.8)     .0018                       

(X_U5B.9)    1.9208                   (X_U6B.1)    -.0363                       

(X_U6B.3)    -.0363                   (X_U6B.4)    -.0363                       

(X_U6B.5)    4.9637                   (X_U6B.6)    -.0344                       

(X_U6B.7)    -.0362                   (X_U6B.8)     .0014                       

(X_U6B.9)    1.9990                   (X_U7B.1) 99.05E-09                       

(X_U7B.3) 99.05E-09                   (X_U7B.4)-485.9E-09                       

(X_U7B.5)    5.0000                   (X_U7B.6)     .0019                       

(X_U7B.7) 14.13E-06                   (X_U7B.8)     .0138                       

(X_U7B.9)    2.9053                   (X_U3B.11)     .0018                      

(X_U3B.12) -191.0400                  (X_U3B.15)     .0018                      

(X_U3B.17) 892.9E-06                  (X_U3B.18)     .0018                      

(X_U3B.19)   -5.0370                  (X_U3B.20)   -1.6000                      

(X_U3B.22) 47.26E-06                  (X_U3B.23)    2.3261                      

(X_U3B.25) 892.9E-06                  (X_U3B.26)    -.0370                      

(X_U3B.28)   99.9630                  (X_U3B.34)     .9461                      

(X_U3B.37)     .0018                  (X_U3B.41)     .0018                      

(X_U4B.11)     .0018                  (X_U4B.12) -191.0400                      

(X_U4B.15)     .0018                  (X_U4B.17) 892.9E-06                      

(X_U4B.18)     .0018                  (X_U4B.19)   -5.0370                      

(X_U4B.20)   -1.6000                  (X_U4B.22) 47.26E-06                      

(X_U4B.23)    2.3261                  (X_U4B.25) 892.9E-06                      

(X_U4B.26)    -.0370                  (X_U4B.28)   99.9630                      

(X_U4B.34)     .9457                  (X_U4B.37)     .0018                      

(X_U4B.41)     .0018                  (X_U5B.11)     .0018                      

(X_U5B.12) -191.0400                  (X_U5B.15)     .0018                      

(X_U5B.17) 893.0E-06                  (X_U5B.18)     .0018                      

(X_U5B.19)   -5.0363                  (X_U5B.20)   -1.6000                      

(X_U5B.22) 47.27E-06                  (X_U5B.23)    2.3275                      

(X_U5B.25) 893.0E-06                  (X_U5B.26)    -.0363                      

(X_U5B.28)   99.9640                  (X_U5B.34)     .9475                      

(X_U5B.37)     .0018                  (X_U5B.41)     .0018                      

(X_U6B.11)     .0014                  (X_U6B.12) -191.0400                      

(X_U6B.15)     .0014                  (X_U6B.17) 893.0E-06                      

(X_U6B.18)     .0018                  (X_U6B.19)   -5.0363                      

(X_U6B.20)   -1.6000                  (X_U6B.22) 47.27E-06                      

(X_U6B.23)    2.3275                  (X_U6B.25) 893.0E-06                      

(X_U6B.26)    -.0363                  (X_U6B.28)   99.9640                      

(X_U6B.34)     .9475                  (X_U6B.37)     .0014                      

(X_U6B.41)     .0014                  (X_U7B.11)     .0137                      

(X_U7B.12) -191.0000                  (X_U7B.15)     .0138                      

(X_U7B.17)    1.5568                  (X_U7B.18)    1.5577                      

(X_U7B.19)   -5.0000                  (X_U7B.20)   -1.6000                      

(X_U7B.22)    1.5560                  (X_U7B.23)    2.4000                      

(X_U7B.25)    1.5568                  (X_U7B.26) 1.099E-06                      

(X_U7B.28)  100.0000                  (X_U7B.34)    1.0200                      

(X_U7B.37)     .0137                  (X_U7B.41)     .0137                  




    VOLTAGE SOURCE CURRENTS
    NAME         CURRENT

    V_V6         3.857E-08
    V_V1        -1.802E-04
    V_V2         1.770E-04
    V_V7         6.286E-08
    X_U6B.VV262  -5.010E-12
    X_U6B.VV261  -1.000E-10
    X_U6B.VV256  -1.910E-10
    X_U6B.VV245   1.611E-12
    X_U6B.VFI100  -3.282E-09
    X_U6B.VIC2  -3.672E-08
    X_U6B.VV219   9.561E-13
    X_U6B.VV234  -5.010E-12
    X_U7B.VV262  -5.010E-12
    X_U7B.VV261  -1.000E-10
    X_U7B.VV256  -1.910E-10
    X_U7B.VV245   1.624E-12
    X_U7B.VFI100   3.048E-06
    X_U7B.VIC2  -3.088E-06
    X_U7B.VV219   1.016E-12
    X_U7B.VV234  -5.010E-12
    X_U3B.VV262  -5.010E-12
    X_U3B.VV261  -1.000E-10
    X_U3B.VV256  -1.910E-10
    X_U3B.VV245   1.612E-12
    X_U3B.VFI100  -3.182E-08
    X_U3B.VIC2  -8.183E-09
    X_U3B.VV219   9.543E-13
    X_U3B.VV234  -5.010E-12
    X_U4B.VV262  -5.010E-12
    X_U4B.VV261  -1.000E-10
    X_U4B.VV256  -1.910E-10
    X_U4B.VV245   1.612E-12
    X_U4B.VFI100  -3.182E-08
    X_U4B.VIC2  -8.183E-09
    X_U4B.VV219   9.539E-13
    X_U4B.VV234  -5.010E-12
    X_U5B.VV262  -5.010E-12
    X_U5B.VV261  -1.000E-10
    X_U5B.VV256  -1.910E-10
    X_U5B.VV245   1.612E-12
    X_U5B.VFI100  -6.748E-08
    X_U5B.VIC2   2.748E-08
    X_U5B.VV219   9.557E-13
    X_U5B.VV234  -5.010E-12

    TOTAL POWER DISSIPATION   8.57E-04  WATTS

**** Param: R_R51.Value = 250k
**** Param: R_R22.Value = 1k
**** Param: R_R21.Value = 1k
**** Param: R_R12.Value = 10.20000000000000k
**** Param: R_R52.Value = 250k
**** Param: R_R31.Value = 250k
**** Param: R_R32.Value = 250k
**** Param: R_R11.Value = 10k
**** Param: R_R41.Value = 500k
**** Param: R_R42.Value = 500k

**** Command: doALL

**** 06/16/25 12:56:25 ***** PSpice 24.1.0 (17 April 2025) **** ID# 0 ********

 ** Profile: "SCHEMATIC1-mul"  [ f:\simran_intern\orcade\analog_multiplier-PSpiceFiles\SCHEMATIC1\mul.sim ] 


 ****     INITIAL TRANSIENT SOLUTION       TEMPERATURE =   27.000 DEG C

 ****     Sensitivity run 4                


******************************************************************************



 NODE   VOLTAGE     NODE   VOLTAGE     NODE   VOLTAGE     NODE   VOLTAGE


(   VX)    0.0000  (   VY)    0.0000  (  VDD)    2.4000  (  VSS)   -2.4000      

( VOUT)     .0166  (N05413)    2.3275 (N05563)     .0018 (N05575)     .0018     

(N05623)    1.5569 (N05881)    1.5586 (N05921)    2.3275 (N05955)     .0018     

(N06239)     .0018 (N06251)     .0014 (X_U3B.1)    -.0363                       

(X_U3B.3)    -.0363                   (X_U3B.4)    -.0363                       

(X_U3B.5)    4.9637                   (X_U3B.6)    -.0344                       

(X_U3B.7)    -.0362                   (X_U3B.8)     .0018                       

(X_U3B.9)    1.9402                   (X_U4B.1)    -.0363                       

(X_U4B.3)    -.0363                   (X_U4B.4)    -.0363                       

(X_U4B.5)    4.9637                   (X_U4B.6)    -.0344                       

(X_U4B.7)    -.0362                   (X_U4B.8)     .0018                       

(X_U4B.9)    1.9402                   (X_U5B.1)    -.0363                       

(X_U5B.3)    -.0363                   (X_U5B.4)    -.0363                       

(X_U5B.5)    4.9637                   (X_U5B.6)    -.0344                       

(X_U5B.7)    -.0362                   (X_U5B.8)     .0018                       

(X_U5B.9)    1.9211                   (X_U6B.1)    -.0363                       

(X_U6B.3)    -.0363                   (X_U6B.4)    -.0363                       

(X_U6B.5)    4.9637                   (X_U6B.6)    -.0344                       

(X_U6B.7)    -.0362                   (X_U6B.8)     .0014                       

(X_U6B.9)    1.9940                   (X_U7B.1) 99.05E-09                       

(X_U7B.3) 99.05E-09                   (X_U7B.4)-609.7E-09                       

(X_U7B.5)    5.0000                   (X_U7B.6)     .0019                       

(X_U7B.7) 17.10E-06                   (X_U7B.8)     .0166                       

(X_U7B.9)    2.9052                   (X_U3B.11)     .0018                      

(X_U3B.12) -191.0400                  (X_U3B.15)     .0018                      

(X_U3B.17) 893.0E-06                  (X_U3B.18)     .0018                      

(X_U3B.19)   -5.0363                  (X_U3B.20)   -1.6000                      

(X_U3B.22) 47.28E-06                  (X_U3B.23)    2.3275                      

(X_U3B.25) 893.0E-06                  (X_U3B.26)    -.0363                      

(X_U3B.28)   99.9640                  (X_U3B.34)     .9475                      

(X_U3B.37)     .0018                  (X_U3B.41)     .0018                      

(X_U4B.11)     .0018                  (X_U4B.12) -191.0400                      

(X_U4B.15)     .0018                  (X_U4B.17) 893.0E-06                      

(X_U4B.18)     .0018                  (X_U4B.19)   -5.0363                      

(X_U4B.20)   -1.6000                  (X_U4B.22) 47.28E-06                      

(X_U4B.23)    2.3275                  (X_U4B.25) 893.0E-06                      

(X_U4B.26)    -.0363                  (X_U4B.28)   99.9640                      

(X_U4B.34)     .9475                  (X_U4B.37)     .0018                      

(X_U4B.41)     .0018                  (X_U5B.11)     .0018                      

(X_U5B.12) -191.0400                  (X_U5B.15)     .0018                      

(X_U5B.17) 893.0E-06                  (X_U5B.18)     .0018                      

(X_U5B.19)   -5.0363                  (X_U5B.20)   -1.6000                      

(X_U5B.22) 47.28E-06                  (X_U5B.23)    2.3275                      

(X_U5B.25) 893.0E-06                  (X_U5B.26)    -.0363                      

(X_U5B.28)   99.9640                  (X_U5B.34)     .9475                      

(X_U5B.37)     .0018                  (X_U5B.41)     .0018                      

(X_U6B.11)     .0014                  (X_U6B.12) -191.0400                      

(X_U6B.15)     .0014                  (X_U6B.17) 893.0E-06                      

(X_U6B.18)     .0018                  (X_U6B.19)   -5.0363                      

(X_U6B.20)   -1.6000                  (X_U6B.22) 47.28E-06                      

(X_U6B.23)    2.3275                  (X_U6B.25) 893.0E-06                      

(X_U6B.26)    -.0363                  (X_U6B.28)   99.9640                      

(X_U6B.34)     .9475                  (X_U6B.37)     .0014                      

(X_U6B.41)     .0014                  (X_U7B.11)     .0165                      

(X_U7B.12) -191.0000                  (X_U7B.15)     .0166                      

(X_U7B.17)    1.5578                  (X_U7B.18)    1.5587                      

(X_U7B.19)   -5.0000                  (X_U7B.20)   -1.6000                      

(X_U7B.22)    1.5569                  (X_U7B.23)    2.4000                      

(X_U7B.25)    1.5578                  (X_U7B.26) 1.099E-06                      

(X_U7B.28)  100.0000                  (X_U7B.34)    1.0200                      

(X_U7B.37)     .0166                  (X_U7B.41)     .0166                  




    VOLTAGE SOURCE CURRENTS
    NAME         CURRENT

    V_V6         3.857E-08
    V_V1        -1.802E-04
    V_V2         1.770E-04
    V_V7         6.286E-08
    X_U6B.VV262  -5.010E-12
    X_U6B.VV261  -1.000E-10
    X_U6B.VV256  -1.910E-10
    X_U6B.VV245   1.611E-12
    X_U6B.VFI100  -3.981E-09
    X_U6B.VIC2  -3.602E-08
    X_U6B.VV219   9.561E-13
    X_U6B.VV234  -5.010E-12
    X_U7B.VV262  -5.010E-12
    X_U7B.VV261  -1.000E-10
    X_U7B.VV256  -1.910E-10
    X_U7B.VV245   1.627E-12
    X_U7B.VFI100   3.044E-06
    X_U7B.VIC2  -3.084E-06
    X_U7B.VV219   1.013E-12
    X_U7B.VV234  -5.010E-12
    X_U3B.VV262  -5.010E-12
    X_U3B.VV261  -1.000E-10
    X_U3B.VV256  -1.910E-10
    X_U3B.VV245   1.612E-12
    X_U3B.VFI100  -3.181E-08
    X_U3B.VIC2  -8.190E-09
    X_U3B.VV219   9.557E-13
    X_U3B.VV234  -5.010E-12
    X_U4B.VV262  -5.010E-12
    X_U4B.VV261  -1.000E-10
    X_U4B.VV256  -1.910E-10
    X_U4B.VV245   1.612E-12
    X_U4B.VFI100  -3.181E-08
    X_U4B.VIC2  -8.190E-09
    X_U4B.VV219   9.557E-13
    X_U4B.VV234  -5.010E-12
    X_U5B.VV262  -5.010E-12
    X_U5B.VV261  -1.000E-10
    X_U5B.VV256  -1.910E-10
    X_U5B.VV245   1.612E-12
    X_U5B.VFI100  -6.678E-08
    X_U5B.VIC2   2.678E-08
    X_U5B.VV219   9.557E-13
    X_U5B.VV234  -5.010E-12

    TOTAL POWER DISSIPATION   8.57E-04  WATTS

**** Param: R_R51.Value = 250k
**** Param: R_R22.Value = 1k
**** Param: R_R21.Value = 1k
**** Param: R_R12.Value = 10k
**** Param: R_R52.Value = 255k
**** Param: R_R31.Value = 250k
**** Param: R_R32.Value = 250k
**** Param: R_R11.Value = 10k
**** Param: R_R41.Value = 500k
**** Param: R_R42.Value = 500k

**** Command: doALL

**** 06/16/25 12:56:25 ***** PSpice 24.1.0 (17 April 2025) **** ID# 0 ********

 ** Profile: "SCHEMATIC1-mul"  [ f:\simran_intern\orcade\analog_multiplier-PSpiceFiles\SCHEMATIC1\mul.sim ] 


 ****     INITIAL TRANSIENT SOLUTION       TEMPERATURE =   27.000 DEG C

 ****     Sensitivity run 5                


******************************************************************************



 NODE   VOLTAGE     NODE   VOLTAGE     NODE   VOLTAGE     NODE   VOLTAGE


(   VX)    0.0000  (   VY)    0.0000  (  VDD)    2.4000  (  VSS)   -2.4000      

( VOUT)     .0166  (N05413)    2.3275 (N05563)     .0018 (N05575)     .0018     

(N05623)    1.5569 (N05881)    1.5586 (N05921)    2.3275 (N05955)     .0018     

(N06239)     .0018 (N06251)     .0014 (X_U3B.1)    -.0363                       

(X_U3B.3)    -.0363                   (X_U3B.4)    -.0363                       

(X_U3B.5)    4.9637                   (X_U3B.6)    -.0344                       

(X_U3B.7)    -.0362                   (X_U3B.8)     .0018                       

(X_U3B.9)    1.9402                   (X_U4B.1)    -.0363                       

(X_U4B.3)    -.0363                   (X_U4B.4)    -.0363                       

(X_U4B.5)    4.9637                   (X_U4B.6)    -.0344                       

(X_U4B.7)    -.0362                   (X_U4B.8)     .0018                       

(X_U4B.9)    1.9402                   (X_U5B.1)    -.0363                       

(X_U5B.3)    -.0363                   (X_U5B.4)    -.0363                       

(X_U5B.5)    4.9637                   (X_U5B.6)    -.0344                       

(X_U5B.7)    -.0362                   (X_U5B.8)     .0018                       

(X_U5B.9)    1.9205                   (X_U6B.1)    -.0363                       

(X_U6B.3)    -.0363                   (X_U6B.4)    -.0363                       

(X_U6B.5)    4.9637                   (X_U6B.6)    -.0344                       

(X_U6B.7)    -.0362                   (X_U6B.8)     .0014                       

(X_U6B.9)    2.0053                   (X_U7B.1) 99.05E-09                       

(X_U7B.3) 99.05E-09                   (X_U7B.4)-609.7E-09                       

(X_U7B.5)    5.0000                   (X_U7B.6)     .0019                       

(X_U7B.7) 17.10E-06                   (X_U7B.8)     .0166                       

(X_U7B.9)    2.9052                   (X_U3B.11)     .0018                      

(X_U3B.12) -191.0400                  (X_U3B.15)     .0018                      

(X_U3B.17) 893.0E-06                  (X_U3B.18)     .0018                      

(X_U3B.19)   -5.0363                  (X_U3B.20)   -1.6000                      

(X_U3B.22) 47.28E-06                  (X_U3B.23)    2.3275                      

(X_U3B.25) 893.0E-06                  (X_U3B.26)    -.0363                      

(X_U3B.28)   99.9640                  (X_U3B.34)     .9475                      

(X_U3B.37)     .0018                  (X_U3B.41)     .0018                      

(X_U4B.11)     .0018                  (X_U4B.12) -191.0400                      

(X_U4B.15)     .0018                  (X_U4B.17) 893.0E-06                      

(X_U4B.18)     .0018                  (X_U4B.19)   -5.0363                      

(X_U4B.20)   -1.6000                  (X_U4B.22) 47.28E-06                      

(X_U4B.23)    2.3275                  (X_U4B.25) 893.0E-06                      

(X_U4B.26)    -.0363                  (X_U4B.28)   99.9640                      

(X_U4B.34)     .9475                  (X_U4B.37)     .0018                      

(X_U4B.41)     .0018                  (X_U5B.11)     .0018                      

(X_U5B.12) -191.0400                  (X_U5B.15)     .0018                      

(X_U5B.17) 893.0E-06                  (X_U5B.18)     .0018                      

(X_U5B.19)   -5.0363                  (X_U5B.20)   -1.6000                      

(X_U5B.22) 47.28E-06                  (X_U5B.23)    2.3275                      

(X_U5B.25) 893.0E-06                  (X_U5B.26)    -.0363                      

(X_U5B.28)   99.9640                  (X_U5B.34)     .9475                      

(X_U5B.37)     .0018                  (X_U5B.41)     .0018                      

(X_U6B.11)     .0014                  (X_U6B.12) -191.0400                      

(X_U6B.15)     .0014                  (X_U6B.17) 893.0E-06                      

(X_U6B.18)     .0018                  (X_U6B.19)   -5.0363                      

(X_U6B.20)   -1.6000                  (X_U6B.22) 47.28E-06                      

(X_U6B.23)    2.3275                  (X_U6B.25) 893.0E-06                      

(X_U6B.26)    -.0363                  (X_U6B.28)   99.9640                      

(X_U6B.34)     .9475                  (X_U6B.37)     .0014                      

(X_U6B.41)     .0014                  (X_U7B.11)     .0165                      

(X_U7B.12) -191.0000                  (X_U7B.15)     .0166                      

(X_U7B.17)    1.5578                  (X_U7B.18)    1.5587                      

(X_U7B.19)   -5.0000                  (X_U7B.20)   -1.6000                      

(X_U7B.22)    1.5569                  (X_U7B.23)    2.4000                      

(X_U7B.25)    1.5578                  (X_U7B.26) 1.099E-06                      

(X_U7B.28)  100.0000                  (X_U7B.34)    1.0200                      

(X_U7B.37)     .0166                  (X_U7B.41)     .0166                  




    VOLTAGE SOURCE CURRENTS
    NAME         CURRENT

    V_V6         3.857E-08
    V_V1        -1.802E-04
    V_V2         1.770E-04
    V_V7         6.286E-08
    X_U6B.VV262  -5.010E-12
    X_U6B.VV261  -1.000E-10
    X_U6B.VV256  -1.910E-10
    X_U6B.VV245   1.611E-12
    X_U6B.VFI100  -2.569E-09
    X_U6B.VIC2  -3.743E-08
    X_U6B.VV219   9.561E-13
    X_U6B.VV234  -5.010E-12
    X_U7B.VV262  -5.010E-12
    X_U7B.VV261  -1.000E-10
    X_U7B.VV256  -1.910E-10
    X_U7B.VV245   1.627E-12
    X_U7B.VFI100   3.044E-06
    X_U7B.VIC2  -3.084E-06
    X_U7B.VV219   1.013E-12
    X_U7B.VV234  -5.010E-12
    X_U3B.VV262  -5.010E-12
    X_U3B.VV261  -1.000E-10
    X_U3B.VV256  -1.910E-10
    X_U3B.VV245   1.612E-12
    X_U3B.VFI100  -3.181E-08
    X_U3B.VIC2  -8.190E-09
    X_U3B.VV219   9.557E-13
    X_U3B.VV234  -5.010E-12
    X_U4B.VV262  -5.010E-12
    X_U4B.VV261  -1.000E-10
    X_U4B.VV256  -1.910E-10
    X_U4B.VV245   1.612E-12
    X_U4B.VFI100  -3.181E-08
    X_U4B.VIC2  -8.190E-09
    X_U4B.VV219   9.557E-13
    X_U4B.VV234  -5.010E-12
    X_U5B.VV262  -5.010E-12
    X_U5B.VV261  -1.000E-10
    X_U5B.VV256  -1.910E-10
    X_U5B.VV245   1.612E-12
    X_U5B.VFI100  -6.819E-08
    X_U5B.VIC2   2.819E-08
    X_U5B.VV219   9.557E-13
    X_U5B.VV234  -5.010E-12

    TOTAL POWER DISSIPATION   8.57E-04  WATTS

**** Param: R_R51.Value = 250k
**** Param: R_R22.Value = 1k
**** Param: R_R21.Value = 1k
**** Param: R_R12.Value = 10k
**** Param: R_R52.Value = 250k
**** Param: R_R31.Value = 255k
**** Param: R_R32.Value = 250k
**** Param: R_R11.Value = 10k
**** Param: R_R41.Value = 500k
**** Param: R_R42.Value = 500k

**** Command: doALL

**** 06/16/25 12:56:25 ***** PSpice 24.1.0 (17 April 2025) **** ID# 0 ********

 ** Profile: "SCHEMATIC1-mul"  [ f:\simran_intern\orcade\analog_multiplier-PSpiceFiles\SCHEMATIC1\mul.sim ] 


 ****     INITIAL TRANSIENT SOLUTION       TEMPERATURE =   27.000 DEG C

 ****     Sensitivity run 6                


******************************************************************************



 NODE   VOLTAGE     NODE   VOLTAGE     NODE   VOLTAGE     NODE   VOLTAGE


(   VX)    0.0000  (   VY)    0.0000  (  VDD)    2.4000  (  VSS)   -2.4000      

( VOUT)    -.0139  (N05413)    2.3275 (N05563)     .0018 (N05575)     .0018     

(N05623)    1.5467 (N05881)    1.5485 (N05921)    2.3275 (N05955)     .0018     

(N06239)     .0018 (N06251)     .0014 (X_U3B.1)    -.0362                       

(X_U3B.3)    -.0362                   (X_U3B.4)    -.0362                       

(X_U3B.5)    4.9638                   (X_U3B.6)    -.0344                       

(X_U3B.7)    -.0362                   (X_U3B.8)     .0018                       

(X_U3B.9)    1.9403                   (X_U4B.1)    -.0362                       

(X_U4B.3)    -.0362                   (X_U4B.4)    -.0362                       

(X_U4B.5)    4.9638                   (X_U4B.6)    -.0344                       

(X_U4B.7)    -.0362                   (X_U4B.8)     .0018                       

(X_U4B.9)    1.9403                   (X_U5B.1)    -.0363                       

(X_U5B.3)    -.0363                   (X_U5B.4)    -.0363                       

(X_U5B.5)    4.9637                   (X_U5B.6)    -.0344                       

(X_U5B.7)    -.0362                   (X_U5B.8)     .0018                       

(X_U5B.9)    1.9207                   (X_U6B.1)    -.0363                       

(X_U6B.3)    -.0363                   (X_U6B.4)    -.0363                       

(X_U6B.5)    4.9637                   (X_U6B.6)    -.0344                       

(X_U6B.7)    -.0362                   (X_U6B.8)     .0014                       

(X_U6B.9)    1.9989                   (X_U7B.1) 99.06E-09                       

(X_U7B.3) 99.06E-09                   (X_U7B.4) 717.2E-09                       

(X_U7B.5)    5.0000                   (X_U7B.6)     .0019                       

(X_U7B.7)-14.72E-06                   (X_U7B.8)    -.0139                       

(X_U7B.9)    2.9056                   (X_U3B.11)     .0018                      

(X_U3B.12) -191.0400                  (X_U3B.15)     .0018                      

(X_U3B.17) 893.0E-06                  (X_U3B.18)     .0018                      

(X_U3B.19)   -5.0362                  (X_U3B.20)   -1.6000                      

(X_U3B.22) 47.28E-06                  (X_U3B.23)    2.3275                      

(X_U3B.25) 893.0E-06                  (X_U3B.26)    -.0362                      

(X_U3B.28)   99.9640                  (X_U3B.34)     .9475                      

(X_U3B.37)     .0018                  (X_U3B.41)     .0018                      

(X_U4B.11)     .0018                  (X_U4B.12) -191.0400                      

(X_U4B.15)     .0018                  (X_U4B.17) 893.0E-06                      

(X_U4B.18)     .0018                  (X_U4B.19)   -5.0362                      

(X_U4B.20)   -1.6000                  (X_U4B.22) 47.28E-06                      

(X_U4B.23)    2.3275                  (X_U4B.25) 893.0E-06                      

(X_U4B.26)    -.0362                  (X_U4B.28)   99.9640                      

(X_U4B.34)     .9492                  (X_U4B.37)     .0018                      

(X_U4B.41)     .0018                  (X_U5B.11)     .0018                      

(X_U5B.12) -191.0400                  (X_U5B.15)     .0018                      

(X_U5B.17) 893.0E-06                  (X_U5B.18)     .0018                      

(X_U5B.19)   -5.0363                  (X_U5B.20)   -1.6000                      

(X_U5B.22) 47.27E-06                  (X_U5B.23)    2.3275                      

(X_U5B.25) 893.0E-06                  (X_U5B.26)    -.0363                      

(X_U5B.28)   99.9640                  (X_U5B.34)     .9475                      

(X_U5B.37)     .0018                  (X_U5B.41)     .0018                      

(X_U6B.11)     .0014                  (X_U6B.12) -191.0400                      

(X_U6B.15)     .0014                  (X_U6B.17) 893.0E-06                      

(X_U6B.18)     .0018                  (X_U6B.19)   -5.0363                      

(X_U6B.20)   -1.6000                  (X_U6B.22) 47.27E-06                      

(X_U6B.23)    2.3275                  (X_U6B.25) 893.0E-06                      

(X_U6B.26)    -.0363                  (X_U6B.28)   99.9640                      

(X_U6B.34)     .9475                  (X_U6B.37)     .0014                      

(X_U6B.41)     .0014                  (X_U7B.11)    -.0140                      

(X_U7B.12) -191.0000                  (X_U7B.15)    -.0139                      

(X_U7B.17)    1.5476                  (X_U7B.18)    1.5485                      

(X_U7B.19)   -5.0000                  (X_U7B.20)   -1.6000                      

(X_U7B.22)    1.5467                  (X_U7B.23)    2.4000                      

(X_U7B.25)    1.5476                  (X_U7B.26) 1.099E-06                      

(X_U7B.28)  100.0000                  (X_U7B.34)    1.0200                      

(X_U7B.37)    -.0139                  (X_U7B.41)    -.0139                  




    VOLTAGE SOURCE CURRENTS
    NAME         CURRENT

    V_V6         3.857E-08
    V_V1        -1.802E-04
    V_V2         1.770E-04
    V_V7         6.286E-08
    X_U6B.VV262  -5.010E-12
    X_U6B.VV261  -1.000E-10
    X_U6B.VV256  -1.910E-10
    X_U6B.VV245   1.611E-12
    X_U6B.VFI100  -3.282E-09
    X_U6B.VIC2  -3.672E-08
    X_U6B.VV219   9.560E-13
    X_U6B.VV234  -5.010E-12
    X_U7B.VV262  -5.010E-12
    X_U7B.VV261  -1.000E-10
    X_U7B.VV256  -1.910E-10
    X_U7B.VV245   1.596E-12
    X_U7B.VFI100   3.085E-06
    X_U7B.VIC2  -3.125E-06
    X_U7B.VV219   1.044E-12
    X_U7B.VV234  -5.010E-12
    X_U3B.VV262  -5.010E-12
    X_U3B.VV261  -1.000E-10
    X_U3B.VV256  -1.910E-10
    X_U3B.VV245   1.612E-12
    X_U3B.VFI100  -3.181E-08
    X_U3B.VIC2  -8.190E-09
    X_U3B.VV219   9.557E-13
    X_U3B.VV234  -5.010E-12
    X_U4B.VV262  -5.010E-12
    X_U4B.VV261  -1.000E-10
    X_U4B.VV256  -1.910E-10
    X_U4B.VV245   1.612E-12
    X_U4B.VFI100  -3.181E-08
    X_U4B.VIC2  -8.190E-09
    X_U4B.VV219   9.575E-13
    X_U4B.VV234  -5.010E-12
    X_U5B.VV262  -5.010E-12
    X_U5B.VV261  -1.000E-10
    X_U5B.VV256  -1.910E-10
    X_U5B.VV245   1.612E-12
    X_U5B.VFI100  -6.748E-08
    X_U5B.VIC2   2.748E-08
    X_U5B.VV219   9.557E-13
    X_U5B.VV234  -5.010E-12

    TOTAL POWER DISSIPATION   8.58E-04  WATTS

**** Param: R_R51.Value = 250k
**** Param: R_R22.Value = 1k
**** Param: R_R21.Value = 1k
**** Param: R_R12.Value = 10k
**** Param: R_R52.Value = 250k
**** Param: R_R31.Value = 250k
**** Param: R_R32.Value = 255k
**** Param: R_R11.Value = 10k
**** Param: R_R41.Value = 500k
**** Param: R_R42.Value = 500k

**** Command: doALL

**** 06/16/25 12:56:25 ***** PSpice 24.1.0 (17 April 2025) **** ID# 0 ********

 ** Profile: "SCHEMATIC1-mul"  [ f:\simran_intern\orcade\analog_multiplier-PSpiceFiles\SCHEMATIC1\mul.sim ] 


 ****     INITIAL TRANSIENT SOLUTION       TEMPERATURE =   27.000 DEG C

 ****     Sensitivity run 7                


******************************************************************************



 NODE   VOLTAGE     NODE   VOLTAGE     NODE   VOLTAGE     NODE   VOLTAGE


(   VX)    0.0000  (   VY)    0.0000  (  VDD)    2.4000  (  VSS)   -2.4000      

( VOUT)     .0466  (N05413)    2.3275 (N05563)     .0018 (N05575)     .0018     

(N05623)    1.5569 (N05881)    1.5586 (N05921)    2.3276 (N05955)     .0018     

(N06239)     .0018 (N06251)     .0014 (X_U3B.1)    -.0363                       

(X_U3B.3)    -.0363                   (X_U3B.4)    -.0363                       

(X_U3B.5)    4.9637                   (X_U3B.6)    -.0344                       

(X_U3B.7)    -.0362                   (X_U3B.8)     .0018                       

(X_U3B.9)    1.9402                   (X_U4B.1)    -.0363                       

(X_U4B.3)    -.0363                   (X_U4B.4)    -.0363                       

(X_U4B.5)    4.9637                   (X_U4B.6)    -.0344                       

(X_U4B.7)    -.0362                   (X_U4B.8)     .0018                       

(X_U4B.9)    1.9402                   (X_U5B.1)    -.0362                       

(X_U5B.3)    -.0362                   (X_U5B.4)    -.0362                       

(X_U5B.5)    4.9638                   (X_U5B.6)    -.0344                       

(X_U5B.7)    -.0362                   (X_U5B.8)     .0018                       

(X_U5B.9)    1.9208                   (X_U6B.1)    -.0362                       

(X_U6B.3)    -.0362                   (X_U6B.4)    -.0362                       

(X_U6B.5)    4.9638                   (X_U6B.6)    -.0344                       

(X_U6B.7)    -.0362                   (X_U6B.8)     .0014                       

(X_U6B.9)    1.9990                   (X_U7B.1) 99.03E-09                       

(X_U7B.3) 99.03E-09                   (X_U7B.4)-1.917E-06                       

(X_U7B.5)    5.0000                   (X_U7B.6)     .0019                       

(X_U7B.7) 48.43E-06                   (X_U7B.8)     .0466                       

(X_U7B.9)    2.9047                   (X_U3B.11)     .0018                      

(X_U3B.12) -191.0400                  (X_U3B.15)     .0018                      

(X_U3B.17) 893.0E-06                  (X_U3B.18)     .0018                      

(X_U3B.19)   -5.0363                  (X_U3B.20)   -1.6000                      

(X_U3B.22) 47.28E-06                  (X_U3B.23)    2.3275                      

(X_U3B.25) 893.0E-06                  (X_U3B.26)    -.0363                      

(X_U3B.28)   99.9640                  (X_U3B.34)     .9475                      

(X_U3B.37)     .0018                  (X_U3B.41)     .0018                      

(X_U4B.11)     .0018                  (X_U4B.12) -191.0400                      

(X_U4B.15)     .0018                  (X_U4B.17) 893.0E-06                      

(X_U4B.18)     .0018                  (X_U4B.19)   -5.0363                      

(X_U4B.20)   -1.6000                  (X_U4B.22) 47.28E-06                      

(X_U4B.23)    2.3275                  (X_U4B.25) 893.0E-06                      

(X_U4B.26)    -.0363                  (X_U4B.28)   99.9640                      

(X_U4B.34)     .9457                  (X_U4B.37)     .0018                      

(X_U4B.41)     .0018                  (X_U5B.11)     .0018                      

(X_U5B.12) -191.0400                  (X_U5B.15)     .0018                      

(X_U5B.17) 893.0E-06                  (X_U5B.18)     .0018                      

(X_U5B.19)   -5.0362                  (X_U5B.20)   -1.6000                      

(X_U5B.22) 47.28E-06                  (X_U5B.23)    2.3276                      

(X_U5B.25) 893.0E-06                  (X_U5B.26)    -.0362                      

(X_U5B.28)   99.9640                  (X_U5B.34)     .9476                      

(X_U5B.37)     .0018                  (X_U5B.41)     .0018                      

(X_U6B.11)     .0014                  (X_U6B.12) -191.0400                      

(X_U6B.15)     .0014                  (X_U6B.17) 893.0E-06                      

(X_U6B.18)     .0018                  (X_U6B.19)   -5.0362                      

(X_U6B.20)   -1.6000                  (X_U6B.22) 47.28E-06                      

(X_U6B.23)    2.3276                  (X_U6B.25) 893.0E-06                      

(X_U6B.26)    -.0362                  (X_U6B.28)   99.9640                      

(X_U6B.34)     .9476                  (X_U6B.37)     .0014                      

(X_U6B.41)     .0014                  (X_U7B.11)     .0465                      

(X_U7B.12) -191.0000                  (X_U7B.15)     .0466                      

(X_U7B.17)    1.5578                  (X_U7B.18)    1.5587                      

(X_U7B.19)   -5.0000                  (X_U7B.20)   -1.6000                      

(X_U7B.22)    1.5569                  (X_U7B.23)    2.4000                      

(X_U7B.25)    1.5578                  (X_U7B.26) 1.099E-06                      

(X_U7B.28)  100.0000                  (X_U7B.34)    1.0200                      

(X_U7B.37)     .0466                  (X_U7B.41)     .0466                  




    VOLTAGE SOURCE CURRENTS
    NAME         CURRENT

    V_V6         3.857E-08
    V_V1        -1.802E-04
    V_V2         1.769E-04
    V_V7         6.286E-08
    X_U6B.VV262  -5.010E-12
    X_U6B.VV261  -1.000E-10
    X_U6B.VV256  -1.910E-10
    X_U6B.VV245   1.611E-12
    X_U6B.VFI100  -3.282E-09
    X_U6B.VIC2  -3.672E-08
    X_U6B.VV219   9.561E-13
    X_U6B.VV234  -5.010E-12
    X_U7B.VV262  -5.010E-12
    X_U7B.VV261  -1.000E-10
    X_U7B.VV256  -1.910E-10
    X_U7B.VV245   1.657E-12
    X_U7B.VFI100   2.984E-06
    X_U7B.VIC2  -3.024E-06
    X_U7B.VV219   9.834E-13
    X_U7B.VV234  -5.010E-12
    X_U3B.VV262  -5.010E-12
    X_U3B.VV261  -1.000E-10
    X_U3B.VV256  -1.910E-10
    X_U3B.VV245   1.612E-12
    X_U3B.VFI100  -3.181E-08
    X_U3B.VIC2  -8.190E-09
    X_U3B.VV219   9.557E-13
    X_U3B.VV234  -5.010E-12
    X_U4B.VV262  -5.010E-12
    X_U4B.VV261  -1.000E-10
    X_U4B.VV256  -1.910E-10
    X_U4B.VV245   1.612E-12
    X_U4B.VFI100  -3.181E-08
    X_U4B.VIC2  -8.190E-09
    X_U4B.VV219   9.539E-13
    X_U4B.VV234  -5.010E-12
    X_U5B.VV262  -5.010E-12
    X_U5B.VV261  -1.000E-10
    X_U5B.VV256  -1.910E-10
    X_U5B.VV245   1.612E-12
    X_U5B.VFI100  -6.748E-08
    X_U5B.VIC2   2.748E-08
    X_U5B.VV219   9.558E-13
    X_U5B.VV234  -5.010E-12

    TOTAL POWER DISSIPATION   8.57E-04  WATTS

**** Param: R_R51.Value = 250k
**** Param: R_R22.Value = 1k
**** Param: R_R21.Value = 1k
**** Param: R_R12.Value = 10k
**** Param: R_R52.Value = 250k
**** Param: R_R31.Value = 250k
**** Param: R_R32.Value = 250k
**** Param: R_R11.Value = 10.20000000000000k
**** Param: R_R41.Value = 500k
**** Param: R_R42.Value = 500k

**** Command: doALL

**** 06/16/25 12:56:25 ***** PSpice 24.1.0 (17 April 2025) **** ID# 0 ********

 ** Profile: "SCHEMATIC1-mul"  [ f:\simran_intern\orcade\analog_multiplier-PSpiceFiles\SCHEMATIC1\mul.sim ] 


 ****     INITIAL TRANSIENT SOLUTION       TEMPERATURE =   27.000 DEG C

 ****     Sensitivity run 8                


******************************************************************************



 NODE   VOLTAGE     NODE   VOLTAGE     NODE   VOLTAGE     NODE   VOLTAGE


(   VX)    0.0000  (   VY)    0.0000  (  VDD)    2.4000  (  VSS)   -2.4000      

( VOUT)     .0166  (N05413)    2.3275 (N05563)     .0018 (N05575)     .0018     

(N05623)    1.5569 (N05881)    1.5586 (N05921)    2.3275 (N05955)     .0018     

(N06239)     .0018 (N06251)     .0014 (X_U3B.1)    -.0363                       

(X_U3B.3)    -.0363                   (X_U3B.4)    -.0363                       

(X_U3B.5)    4.9637                   (X_U3B.6)    -.0344                       

(X_U3B.7)    -.0362                   (X_U3B.8)     .0018                       

(X_U3B.9)    1.9402                   (X_U4B.1)    -.0363                       

(X_U4B.3)    -.0363                   (X_U4B.4)    -.0363                       

(X_U4B.5)    4.9637                   (X_U4B.6)    -.0344                       

(X_U4B.7)    -.0362                   (X_U4B.8)     .0018                       

(X_U4B.9)    1.9402                   (X_U5B.1)    -.0363                       

(X_U5B.3)    -.0363                   (X_U5B.4)    -.0363                       

(X_U5B.5)    4.9637                   (X_U5B.6)    -.0344                       

(X_U5B.7)    -.0362                   (X_U5B.8)     .0018                       

(X_U5B.9)    1.9208                   (X_U6B.1)    -.0363                       

(X_U6B.3)    -.0363                   (X_U6B.4)    -.0363                       

(X_U6B.5)    4.9637                   (X_U6B.6)    -.0344                       

(X_U6B.7)    -.0362                   (X_U6B.8)     .0014                       

(X_U6B.9)    1.9990                   (X_U7B.1) 99.05E-09                       

(X_U7B.3) 99.05E-09                   (X_U7B.4)-609.7E-09                       

(X_U7B.5)    5.0000                   (X_U7B.6)     .0019                       

(X_U7B.7) 17.10E-06                   (X_U7B.8)     .0166                       

(X_U7B.9)    2.9052                   (X_U3B.11)     .0018                      

(X_U3B.12) -191.0400                  (X_U3B.15)     .0018                      

(X_U3B.17) 893.0E-06                  (X_U3B.18)     .0018                      

(X_U3B.19)   -5.0363                  (X_U3B.20)   -1.6000                      

(X_U3B.22) 47.28E-06                  (X_U3B.23)    2.3275                      

(X_U3B.25) 893.0E-06                  (X_U3B.26)    -.0363                      

(X_U3B.28)   99.9640                  (X_U3B.34)     .9475                      

(X_U3B.37)     .0018                  (X_U3B.41)     .0018                      

(X_U4B.11)     .0018                  (X_U4B.12) -191.0400                      

(X_U4B.15)     .0018                  (X_U4B.17) 893.0E-06                      

(X_U4B.18)     .0018                  (X_U4B.19)   -5.0363                      

(X_U4B.20)   -1.6000                  (X_U4B.22) 47.28E-06                      

(X_U4B.23)    2.3275                  (X_U4B.25) 893.0E-06                      

(X_U4B.26)    -.0363                  (X_U4B.28)   99.9640                      

(X_U4B.34)     .9475                  (X_U4B.37)     .0018                      

(X_U4B.41)     .0018                  (X_U5B.11)     .0018                      

(X_U5B.12) -191.0400                  (X_U5B.15)     .0018                      

(X_U5B.17) 893.0E-06                  (X_U5B.18)     .0018                      

(X_U5B.19)   -5.0363                  (X_U5B.20)   -1.6000                      

(X_U5B.22) 47.28E-06                  (X_U5B.23)    2.3275                      

(X_U5B.25) 893.0E-06                  (X_U5B.26)    -.0363                      

(X_U5B.28)   99.9640                  (X_U5B.34)     .9475                      

(X_U5B.37)     .0018                  (X_U5B.41)     .0018                      

(X_U6B.11)     .0014                  (X_U6B.12) -191.0400                      

(X_U6B.15)     .0014                  (X_U6B.17) 893.0E-06                      

(X_U6B.18)     .0018                  (X_U6B.19)   -5.0363                      

(X_U6B.20)   -1.6000                  (X_U6B.22) 47.28E-06                      

(X_U6B.23)    2.3275                  (X_U6B.25) 893.0E-06                      

(X_U6B.26)    -.0363                  (X_U6B.28)   99.9640                      

(X_U6B.34)     .9475                  (X_U6B.37)     .0014                      

(X_U6B.41)     .0014                  (X_U7B.11)     .0165                      

(X_U7B.12) -191.0000                  (X_U7B.15)     .0166                      

(X_U7B.17)    1.5578                  (X_U7B.18)    1.5587                      

(X_U7B.19)   -5.0000                  (X_U7B.20)   -1.6000                      

(X_U7B.22)    1.5569                  (X_U7B.23)    2.4000                      

(X_U7B.25)    1.5578                  (X_U7B.26) 1.099E-06                      

(X_U7B.28)  100.0000                  (X_U7B.34)    1.0200                      

(X_U7B.37)     .0166                  (X_U7B.41)     .0166                  




    VOLTAGE SOURCE CURRENTS
    NAME         CURRENT

    V_V6         3.857E-08
    V_V1        -1.802E-04
    V_V2         1.770E-04
    V_V7         6.286E-08
    X_U6B.VV262  -5.010E-12
    X_U6B.VV261  -1.000E-10
    X_U6B.VV256  -1.910E-10
    X_U6B.VV245   1.611E-12
    X_U6B.VFI100  -3.282E-09
    X_U6B.VIC2  -3.672E-08
    X_U6B.VV219   9.561E-13
    X_U6B.VV234  -5.010E-12
    X_U7B.VV262  -5.010E-12
    X_U7B.VV261  -1.000E-10
    X_U7B.VV256  -1.910E-10
    X_U7B.VV245   1.627E-12
    X_U7B.VFI100   3.044E-06
    X_U7B.VIC2  -3.084E-06
    X_U7B.VV219   1.013E-12
    X_U7B.VV234  -5.010E-12
    X_U3B.VV262  -5.010E-12
    X_U3B.VV261  -1.000E-10
    X_U3B.VV256  -1.910E-10
    X_U3B.VV245   1.612E-12
    X_U3B.VFI100  -3.181E-08
    X_U3B.VIC2  -8.190E-09
    X_U3B.VV219   9.557E-13
    X_U3B.VV234  -5.010E-12
    X_U4B.VV262  -5.010E-12
    X_U4B.VV261  -1.000E-10
    X_U4B.VV256  -1.910E-10
    X_U4B.VV245   1.612E-12
    X_U4B.VFI100  -3.181E-08
    X_U4B.VIC2  -8.190E-09
    X_U4B.VV219   9.557E-13
    X_U4B.VV234  -5.010E-12
    X_U5B.VV262  -5.010E-12
    X_U5B.VV261  -1.000E-10
    X_U5B.VV256  -1.910E-10
    X_U5B.VV245   1.612E-12
    X_U5B.VFI100  -6.748E-08
    X_U5B.VIC2   2.748E-08
    X_U5B.VV219   9.557E-13
    X_U5B.VV234  -5.010E-12

    TOTAL POWER DISSIPATION   8.57E-04  WATTS

**** Param: R_R51.Value = 250k
**** Param: R_R22.Value = 1k
**** Param: R_R21.Value = 1k
**** Param: R_R12.Value = 10k
**** Param: R_R52.Value = 250k
**** Param: R_R31.Value = 250k
**** Param: R_R32.Value = 250k
**** Param: R_R11.Value = 10k
**** Param: R_R41.Value = 510k
**** Param: R_R42.Value = 500k

**** Command: doALL

**** 06/16/25 12:56:25 ***** PSpice 24.1.0 (17 April 2025) **** ID# 0 ********

 ** Profile: "SCHEMATIC1-mul"  [ f:\simran_intern\orcade\analog_multiplier-PSpiceFiles\SCHEMATIC1\mul.sim ] 


 ****     INITIAL TRANSIENT SOLUTION       TEMPERATURE =   27.000 DEG C

 ****     Sensitivity run 9                


******************************************************************************



 NODE   VOLTAGE     NODE   VOLTAGE     NODE   VOLTAGE     NODE   VOLTAGE


(   VX)    0.0000  (   VY)    0.0000  (  VDD)    2.4000  (  VSS)   -2.4000      

( VOUT)     .0473  (N05413)    2.3275 (N05563)     .0018 (N05575)     .0018     

(N05623)    1.5672 (N05881)    1.5689 (N05921)    2.3275 (N05955)     .0018     

(N06239)     .0018 (N06251)     .0014 (X_U3B.1)    -.0362                       

(X_U3B.3)    -.0362                   (X_U3B.4)    -.0362                       

(X_U3B.5)    4.9638                   (X_U3B.6)    -.0344                       

(X_U3B.7)    -.0362                   (X_U3B.8)     .0018                       

(X_U3B.9)    1.9403                   (X_U4B.1)    -.0362                       

(X_U4B.3)    -.0362                   (X_U4B.4)    -.0362                       

(X_U4B.5)    4.9638                   (X_U4B.6)    -.0344                       

(X_U4B.7)    -.0362                   (X_U4B.8)     .0018                       

(X_U4B.9)    1.9403                   (X_U5B.1)    -.0362                       

(X_U5B.3)    -.0362                   (X_U5B.4)    -.0362                       

(X_U5B.5)    4.9638                   (X_U5B.6)    -.0344                       

(X_U5B.7)    -.0362                   (X_U5B.8)     .0018                       

(X_U5B.9)    1.9208                   (X_U6B.1)    -.0362                       

(X_U6B.3)    -.0362                   (X_U6B.4)    -.0362                       

(X_U6B.5)    4.9638                   (X_U6B.6)    -.0344                       

(X_U6B.7)    -.0362                   (X_U6B.8)     .0014                       

(X_U6B.9)    1.9990                   (X_U7B.1) 99.03E-09                       

(X_U7B.3) 99.03E-09                   (X_U7B.4)-1.947E-06                       

(X_U7B.5)    5.0000                   (X_U7B.6)     .0019                       

(X_U7B.7) 49.15E-06                   (X_U7B.8)     .0473                       

(X_U7B.9)    2.9049                   (X_U3B.11)     .0018                      

(X_U3B.12) -191.0400                  (X_U3B.15)     .0018                      

(X_U3B.17) 893.0E-06                  (X_U3B.18)     .0018                      

(X_U3B.19)   -5.0362                  (X_U3B.20)   -1.6000                      

(X_U3B.22) 47.28E-06                  (X_U3B.23)    2.3275                      

(X_U3B.25) 893.0E-06                  (X_U3B.26)    -.0362                      

(X_U3B.28)   99.9640                  (X_U3B.34)     .9475                      

(X_U3B.37)     .0018                  (X_U3B.41)     .0018                      

(X_U4B.11)     .0018                  (X_U4B.12) -191.0400                      

(X_U4B.15)     .0018                  (X_U4B.17) 893.0E-06                      

(X_U4B.18)     .0018                  (X_U4B.19)   -5.0362                      

(X_U4B.20)   -1.6000                  (X_U4B.22) 47.28E-06                      

(X_U4B.23)    2.3275                  (X_U4B.25) 893.0E-06                      

(X_U4B.26)    -.0362                  (X_U4B.28)   99.9640                      

(X_U4B.34)     .9475                  (X_U4B.37)     .0018                      

(X_U4B.41)     .0018                  (X_U5B.11)     .0018                      

(X_U5B.12) -191.0400                  (X_U5B.15)     .0018                      

(X_U5B.17) 893.0E-06                  (X_U5B.18)     .0018                      

(X_U5B.19)   -5.0362                  (X_U5B.20)   -1.6000                      

(X_U5B.22) 47.28E-06                  (X_U5B.23)    2.3275                      

(X_U5B.25) 893.0E-06                  (X_U5B.26)    -.0362                      

(X_U5B.28)   99.9640                  (X_U5B.34)     .9475                      

(X_U5B.37)     .0018                  (X_U5B.41)     .0018                      

(X_U6B.11)     .0014                  (X_U6B.12) -191.0400                      

(X_U6B.15)     .0014                  (X_U6B.17) 893.0E-06                      

(X_U6B.18)     .0018                  (X_U6B.19)   -5.0362                      

(X_U6B.20)   -1.6000                  (X_U6B.22) 47.28E-06                      

(X_U6B.23)    2.3275                  (X_U6B.25) 893.0E-06                      

(X_U6B.26)    -.0362                  (X_U6B.28)   99.9640                      

(X_U6B.34)     .9475                  (X_U6B.37)     .0014                      

(X_U6B.41)     .0014                  (X_U7B.11)     .0472                      

(X_U7B.12) -191.0000                  (X_U7B.15)     .0473                      

(X_U7B.17)    1.5680                  (X_U7B.18)    1.5689                      

(X_U7B.19)   -5.0000                  (X_U7B.20)   -1.6000                      

(X_U7B.22)    1.5672                  (X_U7B.23)    2.4000                      

(X_U7B.25)    1.5680                  (X_U7B.26) 1.099E-06                      

(X_U7B.28)  100.0000                  (X_U7B.34)    1.0200                      

(X_U7B.37)     .0473                  (X_U7B.41)     .0473                  




    VOLTAGE SOURCE CURRENTS
    NAME         CURRENT

    V_V6         3.857E-08
    V_V1        -1.801E-04
    V_V2         1.769E-04
    V_V7         6.286E-08
    X_U6B.VV262  -5.010E-12
    X_U6B.VV261  -1.000E-10
    X_U6B.VV256  -1.910E-10
    X_U6B.VV245   1.611E-12
    X_U6B.VFI100  -3.282E-09
    X_U6B.VIC2  -3.672E-08
    X_U6B.VV219   9.561E-13
    X_U6B.VV234  -5.010E-12
    X_U7B.VV262  -5.010E-12
    X_U7B.VV261  -1.000E-10
    X_U7B.VV256  -1.910E-10
    X_U7B.VV245   1.657E-12
    X_U7B.VFI100   3.003E-06
    X_U7B.VIC2  -3.043E-06
    X_U7B.VV219   9.827E-13
    X_U7B.VV234  -5.010E-12
    X_U3B.VV262  -5.010E-12
    X_U3B.VV261  -1.000E-10
    X_U3B.VV256  -1.910E-10
    X_U3B.VV245   1.612E-12
    X_U3B.VFI100  -3.181E-08
    X_U3B.VIC2  -8.190E-09
    X_U3B.VV219   9.558E-13
    X_U3B.VV234  -5.010E-12
    X_U4B.VV262  -5.010E-12
    X_U4B.VV261  -1.000E-10
    X_U4B.VV256  -1.910E-10
    X_U4B.VV245   1.612E-12
    X_U4B.VFI100  -3.181E-08
    X_U4B.VIC2  -8.190E-09
    X_U4B.VV219   9.557E-13
    X_U4B.VV234  -5.010E-12
    X_U5B.VV262  -5.010E-12
    X_U5B.VV261  -1.000E-10
    X_U5B.VV256  -1.910E-10
    X_U5B.VV245   1.612E-12
    X_U5B.VFI100  -6.748E-08
    X_U5B.VIC2   2.748E-08
    X_U5B.VV219   9.558E-13
    X_U5B.VV234  -5.010E-12

    TOTAL POWER DISSIPATION   8.57E-04  WATTS

**** Param: R_R51.Value = 250k
**** Param: R_R22.Value = 1k
**** Param: R_R21.Value = 1k
**** Param: R_R12.Value = 10k
**** Param: R_R52.Value = 250k
**** Param: R_R31.Value = 250k
**** Param: R_R32.Value = 250k
**** Param: R_R11.Value = 10k
**** Param: R_R41.Value = 500k
**** Param: R_R42.Value = 510k

**** Command: doALL

**** 06/16/25 12:56:25 ***** PSpice 24.1.0 (17 April 2025) **** ID# 0 ********

 ** Profile: "SCHEMATIC1-mul"  [ f:\simran_intern\orcade\analog_multiplier-PSpiceFiles\SCHEMATIC1\mul.sim ] 


 ****     INITIAL TRANSIENT SOLUTION       TEMPERATURE =   27.000 DEG C

 ****     Sensitivity run 10               


******************************************************************************



 NODE   VOLTAGE     NODE   VOLTAGE     NODE   VOLTAGE     NODE   VOLTAGE


(   VX)    0.0000  (   VY)    0.0000  (  VDD)    2.4000  (  VSS)   -2.4000      

( VOUT)    -.0142  (N05413)    2.3275 (N05563)     .0018 (N05575)     .0018     

(N05623)    1.5569 (N05881)    1.5586 (N05921)    2.3275 (N05955)     .0018     

(N06239)     .0018 (N06251)     .0014 (X_U3B.1)    -.0363                       

(X_U3B.3)    -.0363                   (X_U3B.4)    -.0363                       

(X_U3B.5)    4.9637                   (X_U3B.6)    -.0344                       

(X_U3B.7)    -.0362                   (X_U3B.8)     .0018                       

(X_U3B.9)    1.9402                   (X_U4B.1)    -.0363                       

(X_U4B.3)    -.0363                   (X_U4B.4)    -.0363                       

(X_U4B.5)    4.9637                   (X_U4B.6)    -.0344                       

(X_U4B.7)    -.0362                   (X_U4B.8)     .0018                       

(X_U4B.9)    1.9402                   (X_U5B.1)    -.0363                       

(X_U5B.3)    -.0363                   (X_U5B.4)    -.0363                       

(X_U5B.5)    4.9637                   (X_U5B.6)    -.0344                       

(X_U5B.7)    -.0362                   (X_U5B.8)     .0018                       

(X_U5B.9)    1.9208                   (X_U6B.1)    -.0363                       

(X_U6B.3)    -.0363                   (X_U6B.4)    -.0363                       

(X_U6B.5)    4.9637                   (X_U6B.6)    -.0344                       

(X_U6B.7)    -.0362                   (X_U6B.8)     .0014                       

(X_U6B.9)    1.9990                   (X_U7B.1) 99.05E-09                       

(X_U7B.3) 99.05E-09                   (X_U7B.4) 731.9E-09                       

(X_U7B.5)    5.0000                   (X_U7B.6)     .0019                       

(X_U7B.7)-15.08E-06                   (X_U7B.8)    -.0142                       

(X_U7B.9)    2.9052                   (X_U3B.11)     .0018                      

(X_U3B.12) -191.0400                  (X_U3B.15)     .0018                      

(X_U3B.17) 893.0E-06                  (X_U3B.18)     .0018                      

(X_U3B.19)   -5.0363                  (X_U3B.20)   -1.6000                      

(X_U3B.22) 47.28E-06                  (X_U3B.23)    2.3275                      

(X_U3B.25) 893.0E-06                  (X_U3B.26)    -.0363                      

(X_U3B.28)   99.9640                  (X_U3B.34)     .9475                      

(X_U3B.37)     .0018                  (X_U3B.41)     .0018                      

(X_U4B.11)     .0018                  (X_U4B.12) -191.0400                      

(X_U4B.15)     .0018                  (X_U4B.17) 893.0E-06                      

(X_U4B.18)     .0018                  (X_U4B.19)   -5.0363                      

(X_U4B.20)   -1.6000                  (X_U4B.22) 47.28E-06                      

(X_U4B.23)    2.3275                  (X_U4B.25) 893.0E-06                      

(X_U4B.26)    -.0363                  (X_U4B.28)   99.9640                      

(X_U4B.34)     .9457                  (X_U4B.37)     .0018                      

(X_U4B.41)     .0018                  (X_U5B.11)     .0018                      

(X_U5B.12) -191.0400                  (X_U5B.15)     .0018                      

(X_U5B.17) 893.0E-06                  (X_U5B.18)     .0018                      

(X_U5B.19)   -5.0363                  (X_U5B.20)   -1.6000                      

(X_U5B.22) 47.28E-06                  (X_U5B.23)    2.3275                      

(X_U5B.25) 893.0E-06                  (X_U5B.26)    -.0363                      

(X_U5B.28)   99.9640                  (X_U5B.34)     .9475                      

(X_U5B.37)     .0018                  (X_U5B.41)     .0018                      

(X_U6B.11)     .0014                  (X_U6B.12) -191.0400                      

(X_U6B.15)     .0014                  (X_U6B.17) 893.0E-06                      

(X_U6B.18)     .0018                  (X_U6B.19)   -5.0363                      

(X_U6B.20)   -1.6000                  (X_U6B.22) 47.28E-06                      

(X_U6B.23)    2.3275                  (X_U6B.25) 893.0E-06                      

(X_U6B.26)    -.0363                  (X_U6B.28)   99.9640                      

(X_U6B.34)     .9475                  (X_U6B.37)     .0014                      

(X_U6B.41)     .0014                  (X_U7B.11)    -.0143                      

(X_U7B.12) -191.0000                  (X_U7B.15)    -.0142                      

(X_U7B.17)    1.5578                  (X_U7B.18)    1.5587                      

(X_U7B.19)   -5.0000                  (X_U7B.20)   -1.6000                      

(X_U7B.22)    1.5569                  (X_U7B.23)    2.4000                      

(X_U7B.25)    1.5578                  (X_U7B.26) 1.099E-06                      

(X_U7B.28)  100.0000                  (X_U7B.34)    1.0200                      

(X_U7B.37)    -.0143                  (X_U7B.41)    -.0143                  




    VOLTAGE SOURCE CURRENTS
    NAME         CURRENT

    V_V6         3.857E-08
    V_V1        -1.802E-04
    V_V2         1.770E-04
    V_V7         6.286E-08
    X_U6B.VV262  -5.010E-12
    X_U6B.VV261  -1.000E-10
    X_U6B.VV256  -1.910E-10
    X_U6B.VV245   1.611E-12
    X_U6B.VFI100  -3.282E-09
    X_U6B.VIC2  -3.672E-08
    X_U6B.VV219   9.561E-13
    X_U6B.VV234  -5.010E-12
    X_U7B.VV262  -5.010E-12
    X_U7B.VV261  -1.000E-10
    X_U7B.VV256  -1.910E-10
    X_U7B.VV245   1.596E-12
    X_U7B.VFI100   3.044E-06
    X_U7B.VIC2  -3.084E-06
    X_U7B.VV219   1.044E-12
    X_U7B.VV234  -5.010E-12
    X_U3B.VV262  -5.010E-12
    X_U3B.VV261  -1.000E-10
    X_U3B.VV256  -1.910E-10
    X_U3B.VV245   1.612E-12
    X_U3B.VFI100  -3.181E-08
    X_U3B.VIC2  -8.190E-09
    X_U3B.VV219   9.557E-13
    X_U3B.VV234  -5.010E-12
    X_U4B.VV262  -5.010E-12
    X_U4B.VV261  -1.000E-10
    X_U4B.VV256  -1.910E-10
    X_U4B.VV245   1.612E-12
    X_U4B.VFI100  -3.181E-08
    X_U4B.VIC2  -8.190E-09
    X_U4B.VV219   9.539E-13
    X_U4B.VV234  -5.010E-12
    X_U5B.VV262  -5.010E-12
    X_U5B.VV261  -1.000E-10
    X_U5B.VV256  -1.910E-10
    X_U5B.VV245   1.612E-12
    X_U5B.VFI100  -6.748E-08
    X_U5B.VIC2   2.748E-08
    X_U5B.VV219   9.557E-13
    X_U5B.VV234  -5.010E-12

    TOTAL POWER DISSIPATION   8.57E-04  WATTS

**** Param: R_R51.Value = 262.50000000000000k
**** Param: R_R22.Value = 950
**** Param: R_R21.Value = 1.05000000000000k
**** Param: R_R12.Value = 10.50000000000000k
**** Param: R_R52.Value = 237.50000000000000k
**** Param: R_R31.Value = 262.50000000000000k
**** Param: R_R32.Value = 237.50000000000000k
**** Param: R_R11.Value = 10.50000000000000k
**** Param: R_R41.Value = 475k
**** Param: R_R42.Value = 525k

**** Command: doALL

**** 06/16/25 12:56:25 ***** PSpice 24.1.0 (17 April 2025) **** ID# 0 ********

 ** Profile: "SCHEMATIC1-mul"  [ f:\simran_intern\orcade\analog_multiplier-PSpiceFiles\SCHEMATIC1\mul.sim ] 


 ****     INITIAL TRANSIENT SOLUTION       TEMPERATURE =   27.000 DEG C

 ****     Sensitivity minimum run 1        


******************************************************************************



 NODE   VOLTAGE     NODE   VOLTAGE     NODE   VOLTAGE     NODE   VOLTAGE


(   VX)    0.0000  (   VY)    0.0000  (  VDD)    2.4000  (  VSS)   -2.4000      

( VOUT)    -.3286  (N05413)    2.3239 (N05563)     .0018 (N05575)     .0018     

(N05623)    1.5020 (N05881)    1.5038 (N05921)    2.3307 (N05955)     .0018     

(N06239)     .0018 (N06251)     .0014 (X_U3B.1)    -.0381                       

(X_U3B.3)    -.0381                   (X_U3B.4)    -.0381                       

(X_U3B.5)    4.9619                   (X_U3B.6)    -.0362                       

(X_U3B.7)    -.0380                   (X_U3B.8)     .0018                       

(X_U3B.9)    1.9366                   (X_U4B.1)    -.0381                       

(X_U4B.3)    -.0381                   (X_U4B.4)    -.0381                       

(X_U4B.5)    4.9619                   (X_U4B.6)    -.0362                       

(X_U4B.7)    -.0380                   (X_U4B.8)     .0018                       

(X_U4B.9)    1.9366                   (X_U5B.1)    -.0347                       

(X_U5B.3)    -.0347                   (X_U5B.4)    -.0347                       

(X_U5B.5)    4.9653                   (X_U5B.6)    -.0328                       

(X_U5B.7)    -.0346                   (X_U5B.8)     .0018                       

(X_U5B.9)    1.9224                   (X_U6B.1)    -.0347                       

(X_U6B.3)    -.0347                   (X_U6B.4)    -.0347                       

(X_U6B.5)    4.9653                   (X_U6B.6)    -.0328                       

(X_U6B.7)    -.0346                   (X_U6B.8)     .0014                       

(X_U6B.9)    2.6363                   (X_U7B.1) 99.16E-09                       

(X_U7B.3) 99.16E-09                   (X_U7B.4) 14.41E-06                       

(X_U7B.5)    5.0000                   (X_U7B.6)     .0019                       

(X_U7B.7)-343.1E-06                   (X_U7B.8)    -.3286                       

(X_U7B.9)    2.9085                   (X_U3B.11)     .0018                      

(X_U3B.12) -191.0400                  (X_U3B.15)     .0018                      

(X_U3B.17) 892.9E-06                  (X_U3B.18)     .0018                      

(X_U3B.19)   -5.0381                  (X_U3B.20)   -1.6000                      

(X_U3B.22) 47.24E-06                  (X_U3B.23)    2.3239                      

(X_U3B.25) 892.9E-06                  (X_U3B.26)    -.0381                      

(X_U3B.28)   99.9620                  (X_U3B.34)     .9439                      

(X_U3B.37)     .0018                  (X_U3B.41)     .0018                      

(X_U4B.11)     .0018                  (X_U4B.12) -191.0400                      

(X_U4B.15)     .0018                  (X_U4B.17) 892.9E-06                      

(X_U4B.18)     .0018                  (X_U4B.19)   -5.0381                      

(X_U4B.20)   -1.6000                  (X_U4B.22) 47.24E-06                      

(X_U4B.23)    2.3239                  (X_U4B.25) 892.9E-06                      

(X_U4B.26)    -.0381                  (X_U4B.28)   99.9620                      

(X_U4B.34)     .9421                  (X_U4B.37)     .0018                      

(X_U4B.41)     .0018                  (X_U5B.11)     .0018                      

(X_U5B.12) -191.0300                  (X_U5B.15)     .0018                      

(X_U5B.17) 893.0E-06                  (X_U5B.18)     .0018                      

(X_U5B.19)   -5.0347                  (X_U5B.20)   -1.6000                      

(X_U5B.22) 47.31E-06                  (X_U5B.23)    2.3307                      

(X_U5B.25) 893.0E-06                  (X_U5B.26)    -.0347                      

(X_U5B.28)   99.9650                  (X_U5B.34)     .9507                      

(X_U5B.37)     .0018                  (X_U5B.41)     .0018                      

(X_U6B.11)     .0014                  (X_U6B.12) -191.0300                      

(X_U6B.15)     .0014                  (X_U6B.17) 893.0E-06                      

(X_U6B.18)     .0018                  (X_U6B.19)   -5.0347                      

(X_U6B.20)   -1.6000                  (X_U6B.22) 47.31E-06                      

(X_U6B.23)    2.3307                  (X_U6B.25) 893.0E-06                      

(X_U6B.26)    -.0347                  (X_U6B.28)   99.9650                      

(X_U6B.34)     .9507                  (X_U6B.37)     .0014                      

(X_U6B.41)     .0014                  (X_U7B.11)    -.3287                      

(X_U7B.12) -191.0000                  (X_U7B.15)    -.3286                      

(X_U7B.17)    1.5029                  (X_U7B.18)    1.5038                      

(X_U7B.19)   -5.0000                  (X_U7B.20)   -1.6000                      

(X_U7B.22)    1.5021                  (X_U7B.23)    2.4000                      

(X_U7B.25)    1.5029                  (X_U7B.26) 1.099E-06                      

(X_U7B.28)  100.0000                  (X_U7B.34)    1.0200                      

(X_U7B.37)    -.3287                  (X_U7B.41)    -.3287                  




    VOLTAGE SOURCE CURRENTS
    NAME         CURRENT

    V_V6         3.823E-08
    V_V1        -1.807E-04
    V_V2         1.774E-04
    V_V7         6.286E-08
    X_U6B.VV262  -5.010E-12
    X_U6B.VV261  -1.000E-10
    X_U6B.VV256  -1.910E-10
    X_U6B.VV245   1.611E-12
    X_U6B.VFI100   1.360E-09
    X_U6B.VIC2  -4.136E-08
    X_U6B.VV219   9.593E-13
    X_U6B.VV234  -5.010E-12
    X_U7B.VV262  -5.010E-12
    X_U7B.VV261  -1.000E-10
    X_U7B.VV256  -1.910E-10
    X_U7B.VV245   1.281E-12
    X_U7B.VFI100   3.454E-06
    X_U7B.VIC2  -3.494E-06
    X_U7B.VV219   1.359E-12
    X_U7B.VV234  -5.010E-12
    X_U3B.VV262  -5.010E-12
    X_U3B.VV261  -1.000E-10
    X_U3B.VV256  -1.910E-10
    X_U3B.VV245   1.612E-12
    X_U3B.VFI100  -3.183E-08
    X_U3B.VIC2  -8.172E-09
    X_U3B.VV219   9.521E-13
    X_U3B.VV234  -5.010E-12
    X_U4B.VV262  -5.010E-12
    X_U4B.VV261  -1.000E-10
    X_U4B.VV256  -1.910E-10
    X_U4B.VV245   1.612E-12
    X_U4B.VFI100  -3.183E-08
    X_U4B.VIC2  -8.172E-09
    X_U4B.VV219   9.504E-13
    X_U4B.VV234  -5.010E-12
    X_U5B.VV262  -5.010E-12
    X_U5B.VV261  -1.000E-10
    X_U5B.VV256  -1.910E-10
    X_U5B.VV245   1.612E-12
    X_U5B.VFI100  -7.175E-08
    X_U5B.VIC2   3.175E-08
    X_U5B.VV219   9.589E-13
    X_U5B.VV234  -5.010E-12

    TOTAL POWER DISSIPATION   8.60E-04  WATTS

**** Param: R_R51.Value = 237.50000000000000k
**** Param: R_R22.Value = 1.05000000000000k
**** Param: R_R21.Value = 950
**** Param: R_R12.Value = 9.50000000000000k
**** Param: R_R52.Value = 262.50000000000000k
**** Param: R_R31.Value = 237.50000000000000k
**** Param: R_R32.Value = 262.50000000000000k
**** Param: R_R11.Value = 9.50000000000000k
**** Param: R_R41.Value = 525k
**** Param: R_R42.Value = 475k

**** Command: doALL

**** 06/16/25 12:56:25 ***** PSpice 24.1.0 (17 April 2025) **** ID# 0 ********

 ** Profile: "SCHEMATIC1-mul"  [ f:\simran_intern\orcade\analog_multiplier-PSpiceFiles\SCHEMATIC1\mul.sim ] 


 ****     INITIAL TRANSIENT SOLUTION       TEMPERATURE =   27.000 DEG C

 ****     Sensitivity maximum run 1        


******************************************************************************



 NODE   VOLTAGE     NODE   VOLTAGE     NODE   VOLTAGE     NODE   VOLTAGE


(   VX)    0.0000  (   VY)    0.0000  (  VDD)    2.4000  (  VSS)   -2.4000      

( VOUT)     .3187  (N05413)    2.3311 (N05563)     .0018 (N05575)     .0018     

(N05623)    1.6102 (N05881)    1.6119 (N05921)    2.3243 (N05955)     .0018     

(N06239)     .0018 (N06251)     .0015 (X_U3B.1)    -.0344                       

(X_U3B.3)    -.0344                   (X_U3B.4)    -.0344                       

(X_U3B.5)    4.9656                   (X_U3B.6)    -.0326                       

(X_U3B.7)    -.0344                   (X_U3B.8)     .0018                       

(X_U3B.9)    1.9439                   (X_U4B.1)    -.0344                       

(X_U4B.3)    -.0344                   (X_U4B.4)    -.0344                       

(X_U4B.5)    4.9656                   (X_U4B.6)    -.0326                       

(X_U4B.7)    -.0344                   (X_U4B.8)     .0018                       

(X_U4B.9)    1.9439                   (X_U5B.1)    -.0379                       

(X_U5B.3)    -.0379                   (X_U5B.4)    -.0379                       

(X_U5B.5)    4.9622                   (X_U5B.6)    -.0360                       

(X_U5B.7)    -.0378                   (X_U5B.8)     .0018                       

(X_U5B.9)    1.9203                   (X_U6B.1)    -.0379                       

(X_U6B.3)    -.0379                   (X_U6B.4)    -.0379                       

(X_U6B.5)    4.9622                   (X_U6B.6)    -.0360                       

(X_U6B.7)    -.0378                   (X_U6B.8)     .0015                       

(X_U6B.9)    1.9662                   (X_U7B.1) 98.93E-09                       

(X_U7B.3) 98.93E-09                   (X_U7B.4)-13.75E-06                       

(X_U7B.5)    5.0000                   (X_U7B.6)     .0019                       

(X_U7B.7) 332.3E-06                   (X_U7B.8)     .3187                       

(X_U7B.9)    2.9019                   (X_U3B.11)     .0018                      

(X_U3B.12) -191.0300                  (X_U3B.15)     .0018                      

(X_U3B.17) 893.0E-06                  (X_U3B.18)     .0018                      

(X_U3B.19)   -5.0344                  (X_U3B.20)   -1.6000                      

(X_U3B.22) 47.31E-06                  (X_U3B.23)    2.3311                      

(X_U3B.25) 893.0E-06                  (X_U3B.26)    -.0344                      

(X_U3B.28)   99.9660                  (X_U3B.34)     .9511                      

(X_U3B.37)     .0018                  (X_U3B.41)     .0018                      

(X_U4B.11)     .0018                  (X_U4B.12) -191.0300                      

(X_U4B.15)     .0018                  (X_U4B.17) 893.0E-06                      

(X_U4B.18)     .0018                  (X_U4B.19)   -5.0344                      

(X_U4B.20)   -1.6000                  (X_U4B.22) 47.31E-06                      

(X_U4B.23)    2.3311                  (X_U4B.25) 893.0E-06                      

(X_U4B.26)    -.0344                  (X_U4B.28)   99.9660                      

(X_U4B.34)     .9492                  (X_U4B.37)     .0018                      

(X_U4B.41)     .0018                  (X_U5B.11)     .0018                      

(X_U5B.12) -191.0400                  (X_U5B.15)     .0018                      

(X_U5B.17) 892.9E-06                  (X_U5B.18)     .0018                      

(X_U5B.19)   -5.0379                  (X_U5B.20)   -1.6000                      

(X_U5B.22) 47.24E-06                  (X_U5B.23)    2.3243                      

(X_U5B.25) 892.9E-06                  (X_U5B.26)    -.0378                      

(X_U5B.28)   99.9620                  (X_U5B.34)     .9443                      

(X_U5B.37)     .0018                  (X_U5B.41)     .0018                      

(X_U6B.11)     .0015                  (X_U6B.12) -191.0400                      

(X_U6B.15)     .0015                  (X_U6B.17) 892.9E-06                      

(X_U6B.18)     .0018                  (X_U6B.19)   -5.0379                      

(X_U6B.20)   -1.6000                  (X_U6B.22) 47.24E-06                      

(X_U6B.23)    2.3243                  (X_U6B.25) 892.9E-06                      

(X_U6B.26)    -.0378                  (X_U6B.28)   99.9620                      

(X_U6B.34)     .9443                  (X_U6B.37)     .0015                      

(X_U6B.41)     .0015                  (X_U7B.11)     .3186                      

(X_U7B.12) -191.0000                  (X_U7B.15)     .3187                      

(X_U7B.17)    1.6110                  (X_U7B.18)    1.6119                      

(X_U7B.19)   -5.0000                  (X_U7B.20)   -1.6000                      

(X_U7B.22)    1.6102                  (X_U7B.23)    2.4000                      

(X_U7B.25)    1.6110                  (X_U7B.26) 1.099E-06                      

(X_U7B.28)  100.0000                  (X_U7B.34)    1.0200                      

(X_U7B.37)     .3187                  (X_U7B.41)     .3187                  




    VOLTAGE SOURCE CURRENTS
    NAME         CURRENT

    V_V6         3.895E-08
    V_V1        -1.798E-04
    V_V2         1.766E-04
    V_V7         6.286E-08
    X_U6B.VV262  -5.010E-12
    X_U6B.VV261  -1.000E-10
    X_U6B.VV256  -1.910E-10
    X_U6B.VV245   1.612E-12
    X_U6B.VFI100  -1.029E-08
    X_U6B.VIC2  -2.971E-08
    X_U6B.VV219   9.528E-13
    X_U6B.VV234  -5.010E-12
    X_U7B.VV262  -5.010E-12
    X_U7B.VV261  -1.000E-10
    X_U7B.VV256  -1.910E-10
    X_U7B.VV245   1.929E-12
    X_U7B.VFI100   2.679E-06
    X_U7B.VIC2  -2.719E-06
    X_U7B.VV219   7.113E-13
    X_U7B.VV234  -5.010E-12
    X_U3B.VV262  -5.010E-12
    X_U3B.VV261  -1.000E-10
    X_U3B.VV256  -1.910E-10
    X_U3B.VV245   1.612E-12
    X_U3B.VFI100  -3.179E-08
    X_U3B.VIC2  -8.208E-09
    X_U3B.VV219   9.593E-13
    X_U3B.VV234  -5.010E-12
    X_U4B.VV262  -5.010E-12
    X_U4B.VV261  -1.000E-10
    X_U4B.VV256  -1.910E-10
    X_U4B.VV245   1.612E-12
    X_U4B.VFI100  -3.179E-08
    X_U4B.VIC2  -8.208E-09
    X_U4B.VV219   9.575E-13
    X_U4B.VV234  -5.010E-12
    X_U5B.VV262  -5.010E-12
    X_U5B.VV261  -1.000E-10
    X_U5B.VV256  -1.910E-10
    X_U5B.VV245   1.612E-12
    X_U5B.VFI100  -6.088E-08
    X_U5B.VIC2   2.088E-08
    X_U5B.VV219   9.525E-13
    X_U5B.VV234  -5.010E-12

    TOTAL POWER DISSIPATION   8.56E-04  WATTS


**** Command: FINISH

**** 06/16/25 12:56:25 ***** PSpice 24.1.0 (17 April 2025) **** ID# 0 ********

 ** Profile: "SCHEMATIC1-mul"  [ f:\simran_intern\orcade\analog_multiplier-PSpiceFiles\SCHEMATIC1\mul.sim ] 


 ****     JOB STATISTICS SUMMARY


******************************************************************************



  Total job time (using Solver 1)   =       15.17
