
**** 07/09/25 18:46:23 ***** PSpice 16.6.0 (October 2012) ***** ID# 0 ********

 ** Profile: "SCHEMATIC1-mul"  [ D:\SIMRAN_GUPTA_INTERN\Orcade\analog_multiplier-pspicefiles\schematic1\mul.sim ] 


 ****     CIRCUIT DESCRIPTION


******************************************************************************




** Creating circuit file "mul.cir" 
** WARNING: THIS AUTOMATICALLY GENERATED FILE MAY BE OVERWRITTEN BY SUBSEQUENT SIMULATIONS

*Libraries: 
* Profile Libraries :
* Local Libraries :
* From [PSPICE NETLIST] section of C:\SPB_Data\cdssetup\OrCAD_PSpice/16.6.0/PSpice.ini file:
.lib "C:\Cadence\SPB_16.6\tools\capture\library\awbmc33172..lib" 
.lib "C:\Cadence\SPB_16.6\tools\capture\library\MC33172.lib" 
.lib "C:\Cadence\SPB_16.6\tools\capture\library\MC33172..lib" 
.lib "C:\Cadence\SPB_16.6\tools\capture\library\AD8030..lib" 
.lib "C:\Cadence\SPB_16.6\tools\capture\library\OPAM2GD.lib" 
.lib "C:\Cadence\SPB_16.6\tools\capture\library\OPAM1DS.lib" 
.lib "C:\Cadence\SPB_16.6\tools\capture\library\MOSFET\NMOS.lib" 
.lib "C:\Cadence\SPB_16.6\tools\capture\library\MOSFET\PMOS.lib" 
.lib "C:\Cadence\SPB_16.6\tools\capture\library\OPA_W7inc.lib" 
.lib "C:\Cadence\SPB_16.6\tools\capture\library\OPA_W7dec.lib" 
.lib "C:\Cadence\SPB_16.6\tools\capture\library\OPA_W5inc.lib" 
.lib "C:\Cadence\SPB_16.6\tools\capture\library\OPA_W5dec.lib" 
.lib "C:\Cadence\SPB_16.6\tools\capture\library\OPA_L7inc.lib" 
.lib "C:\Cadence\SPB_16.6\tools\capture\library\OPA_L7dec.lib" 
.lib "C:\Cadence\SPB_16.6\tools\capture\library\OPA_L5inc.lib" 
.lib "C:\Cadence\SPB_16.6\tools\capture\library\OPA_L5dec.lib" 
.lib "C:\Cadence\SPB_16.6\tools\capture\library\OPAM7Do.lib" 
.lib "C:\Cadence\SPB_16.6\tools\capture\library\OPAM5DS.lib" 
.lib "C:\Cadence\SPB_16.6\tools\capture\library\OPA_R5k.lib" 
.lib "C:\Cadence\SPB_16.6\tools\capture\library\OPA_Rdec.lib" 
.lib "C:\Cadence\SPB_16.6\tools\capture\library\OPA_Rinc.lib" 
.lib "C:\Cadence\SPB_16.6\tools\capture\library\OPA.lib" 
.lib "C:\Cadence\SPB_16.6\tools\capture\library\OPAM1GD.lib" 
.lib "C:\Cadence\SPB_16.6\tools\capture\library\OPAM2DS.lib" 
.lib "C:\Cadence\SPB_16.6\tools\capture\library\OPAM4GD.lib" 
.lib "C:\Cadence\SPB_16.6\tools\capture\library\OPAM1GS.lib" 
.lib "C:\Cadence\SPB_16.6\tools\capture\library\OPA_CC.lib" 
.lib "C:\Cadence\SPB_16.6\tools\capture\library\OPA_L6.lib" 
.lib "C:\Cadence\SPB_16.6\tools\capture\library\OPA_W6.lib" 
.lib "C:\Cadence\SPB_16.6\tools\capture\library\OPA_CcDecre..lib" 
.lib "C:\Cadence\SPB_16.6\tools\capture\library\OPA_CcDecr..lib" 
.lib "C:\Cadence\SPB_16.6\tools\capture\library\OPA_W6dec..lib" 
.lib "C:\Cadence\SPB_16.6\tools\capture\library\OPA_CcDec..lib" 
.lib "C:\Cadence\SPB_16.6\tools\capture\library\OPA_L6dec..lib" 
.lib "nom.lib" 

*Analysis directives: 
.TRAN  0 10ms 0 50u 
.OPTIONS ADVCONV
.PROBE64 V(alias(*)) I(alias(*)) W(alias(*)) D(alias(*)) NOISE(alias(*)) 
.INC "..\SCHEMATIC1.net" 



**** INCLUDING SCHEMATIC1.net ****
* source ANALOG_MULTIPLIER
R_R51         N05955 VY R_R51 250k TC=0,0 
.model        R_R51 RES R=1 DEV=5% TC1=0 TC2=0
X_U6B         0 N05955 N06251 N05921 VSS awbmc33172
R_R22         N05921 VDD R_R22 1k TC=0,0 
.model        R_R22 RES R=1 DEV=5% TC1=0 TC2=0
R_R21         N05413 VDD R_R21 1k TC=0,0 
.model        R_R21 RES R=1 DEV=5% TC1=0 TC2=0
X_U7B         N05623 N05881 VOUT VDD VSS awbmc33172
X_U3B         VX N05563 N05563 N05413 VSS awbmc33172
X_U4B         VY N05575 N05575 N05413 VSS awbmc33172
R_R12         N06239 N06251 R_R12 10k TC=0,0 
.model        R_R12 RES R=1 DEV=5% TC1=0 TC2=0
R_R52         N06251 N05955 R_R52 250k TC=0,0 
.model        R_R52 RES R=1 DEV=5% TC1=0 TC2=0
V_V6         VY 0  
+SIN 0 0.2 100 0 0 0
R_R31         N05413 N05623 R_R31 250k TC=0,0 
.model        R_R31 RES R=1 DEV=5% TC1=0 TC2=0
R_R32         N05921 N05881 R_R32 250k TC=0,0 
.model        R_R32 RES R=1 DEV=5% TC1=0 TC2=0
X_U5B         VX N06239 N06239 N05921 VSS awbmc33172
R_R11         N05563 N05575 R_R11 10k TC=0,0 
.model        R_R11 RES R=1 DEV=5% TC1=0 TC2=0
R_R41         N05623 0 R_R41 500k TC=0,0 
.model        R_R41 RES R=1 DEV=5% TC1=0 TC2=0
V_V1         VDD 0 2.4
V_V2         VSS 0 -2.4
V_V7         VX 0  
+SIN 0 0.2 10k 0 0 0
R_R42         N05881 VOUT R_R42 500k TC=0,0 
.model        R_R42 RES R=1 DEV=5% TC1=0 TC2=0

**** RESUMING mul.cir ****
.END

**** 07/09/25 18:46:23 ***** PSpice 16.6.0 (October 2012) ***** ID# 0 ********

 ** Profile: "SCHEMATIC1-mul"  [ D:\SIMRAN_GUPTA_INTERN\Orcade\analog_multiplier-pspicefiles\schematic1\mul.sim ] 


 ****     Diode MODEL PARAMETERS


******************************************************************************




               X_U6B.M1M33174_D4               X_U6B.M2MID     X_U6B.M3MMID    
          IS   10.000000E-15                   10.000000E-15   10.000000E-15 
           N     .7812                                                       
          EG     .1                                              .1          
         XTI    0                                                            


               X_U6B.M4M33174_DP 
          IS   10.000000E-15 
           N     .147        
          EG     .1          
         XTI    0            


               X_U7B.M1M33174_D4               X_U7B.M2MID     X_U7B.M3MMID    
          IS   10.000000E-15                   10.000000E-15   10.000000E-15 
           N     .7812                                                       
          EG     .1                                              .1          
         XTI    0                                                            


               X_U7B.M4M33174_DP 
          IS   10.000000E-15 
           N     .147        
          EG     .1          
         XTI    0            


               X_U3B.M1M33174_D4               X_U3B.M2MID     X_U3B.M3MMID    
          IS   10.000000E-15                   10.000000E-15   10.000000E-15 
           N     .7812                                                       
          EG     .1                                              .1          
         XTI    0                                                            


               X_U3B.M4M33174_DP 
          IS   10.000000E-15 
           N     .147        
          EG     .1          
         XTI    0            


               X_U4B.M1M33174_D4               X_U4B.M2MID     X_U4B.M3MMID    
          IS   10.000000E-15                   10.000000E-15   10.000000E-15 
           N     .7812                                                       
          EG     .1                                              .1          
         XTI    0                                                            


               X_U4B.M4M33174_DP 
          IS   10.000000E-15 
           N     .147        
          EG     .1          
         XTI    0            


               X_U5B.M1M33174_D4               X_U5B.M2MID     X_U5B.M3MMID    
          IS   10.000000E-15                   10.000000E-15   10.000000E-15 
           N     .7812                                                       
          EG     .1                                              .1          
         XTI    0                                                            


               X_U5B.M4M33174_DP 
          IS   10.000000E-15 
           N     .147        
          EG     .1          
         XTI    0            


**** 07/09/25 18:46:23 ***** PSpice 16.6.0 (October 2012) ***** ID# 0 ********

 ** Profile: "SCHEMATIC1-mul"  [ D:\SIMRAN_GUPTA_INTERN\Orcade\analog_multiplier-pspicefiles\schematic1\mul.sim ] 


 ****     Resistor MODEL PARAMETERS


******************************************************************************




               R_R51           R_R22           R_R21           R_R12           
           R    1               1               1               1            


               R_R52           R_R31           R_R32           R_R11           
           R    1               1               1               1            


               R_R41           R_R42           
           R    1               1            


**** 07/09/25 18:46:23 ***** PSpice 16.6.0 (October 2012) ***** ID# 0 ********

 ** Profile: "SCHEMATIC1-mul"  [ D:\SIMRAN_GUPTA_INTERN\Orcade\analog_multiplier-pspicefiles\schematic1\mul.sim ] 


 ****     INITIAL TRANSIENT SOLUTION       TEMPERATURE =   27.000 DEG C


******************************************************************************



 NODE   VOLTAGE     NODE   VOLTAGE     NODE   VOLTAGE     NODE   VOLTAGE


(   VX)    0.0000  (   VY)    0.0000  (  VDD)    2.4000  (  VSS)   -2.4000      

( VOUT)     .0166  (N05413)    2.3275 (N05563)     .0018 (N05575)     .0018     

(N05623)    1.5569 (N05881)    1.5586 (N05921)    2.3275 (N05955)     .0018     

(N06239)     .0018 (N06251)     .0014 (X_U3B.1)    -.0363                       

(X_U3B.3)    -.0363                   (X_U3B.4)    -.0363                       

(X_U3B.5)    4.9637                   (X_U3B.6)    -.0344                       

(X_U3B.7)    -.0362                   (X_U3B.8)     .0018                       

(X_U3B.9)    1.9402                   (X_U4B.1)    -.0363                       

(X_U4B.3)    -.0363                   (X_U4B.4)    -.0363                       

(X_U4B.5)    4.9637                   (X_U4B.6)    -.0344                       

(X_U4B.7)    -.0362                   (X_U4B.8)     .0018                       

(X_U4B.9)    1.9402                   (X_U5B.1)    -.0363                       

(X_U5B.3)    -.0363                   (X_U5B.4)    -.0363                       

(X_U5B.5)    4.9637                   (X_U5B.6)    -.0344                       

(X_U5B.7)    -.0362                   (X_U5B.8)     .0018                       

(X_U5B.9)    1.9208                   (X_U6B.1)    -.0363                       

(X_U6B.3)    -.0363                   (X_U6B.4)    -.0363                       

(X_U6B.5)    4.9637                   (X_U6B.6)    -.0344                       

(X_U6B.7)    -.0362                   (X_U6B.8)     .0014                       

(X_U6B.9)    1.9990                   (X_U7B.1) 99.05E-09                       

(X_U7B.3) 99.05E-09                   (X_U7B.4)-609.7E-09                       

(X_U7B.5)    5.0000                   (X_U7B.6)     .0019                       

(X_U7B.7) 17.10E-06                   (X_U7B.8)     .0166                       

(X_U7B.9)    2.9052                   (X_U3B.11)     .0018                      

(X_U3B.12) -191.0400                  (X_U3B.15)     .0018                      

(X_U3B.17) 893.0E-06                  (X_U3B.18)     .0018                      

(X_U3B.19)   -5.0363                  (X_U3B.20)   -1.6000                      

(X_U3B.22) 47.28E-06                  (X_U3B.23)    2.3275                      

(X_U3B.25) 893.0E-06                  (X_U3B.26)    -.0363                      

(X_U3B.28)   99.9640                  (X_U3B.34)     .9475                      

(X_U3B.37)     .0018                  (X_U3B.41)     .0018                      

(X_U4B.11)     .0018                  (X_U4B.12) -191.0400                      

(X_U4B.15)     .0018                  (X_U4B.17) 893.0E-06                      

(X_U4B.18)     .0018                  (X_U4B.19)   -5.0363                      

(X_U4B.20)   -1.6000                  (X_U4B.22) 47.28E-06                      

(X_U4B.23)    2.3275                  (X_U4B.25) 893.0E-06                      

(X_U4B.26)    -.0363                  (X_U4B.28)   99.9640                      

(X_U4B.34)     .9475                  (X_U4B.37)     .0018                      

(X_U4B.41)     .0018                  (X_U5B.11)     .0018                      

(X_U5B.12) -191.0400                  (X_U5B.15)     .0018                      

(X_U5B.17) 893.0E-06                  (X_U5B.18)     .0018                      

(X_U5B.19)   -5.0363                  (X_U5B.20)   -1.6000                      

(X_U5B.22) 47.28E-06                  (X_U5B.23)    2.3275                      

(X_U5B.25) 893.0E-06                  (X_U5B.26)    -.0363                      

(X_U5B.28)   99.9640                  (X_U5B.34)     .9475                      

(X_U5B.37)     .0018                  (X_U5B.41)     .0018                      

(X_U6B.11)     .0014                  (X_U6B.12) -191.0400                      

(X_U6B.15)     .0014                  (X_U6B.17) 893.0E-06                      

(X_U6B.18)     .0018                  (X_U6B.19)   -5.0363                      

(X_U6B.20)   -1.6000                  (X_U6B.22) 47.28E-06                      

(X_U6B.23)    2.3275                  (X_U6B.25) 893.0E-06                      

(X_U6B.26)    -.0363                  (X_U6B.28)   99.9640                      

(X_U6B.34)     .9475                  (X_U6B.37)     .0014                      

(X_U6B.41)     .0014                  (X_U7B.11)     .0165                      

(X_U7B.12) -191.0000                  (X_U7B.15)     .0166                      

(X_U7B.17)    1.5578                  (X_U7B.18)    1.5587                      

(X_U7B.19)   -5.0000                  (X_U7B.20)   -1.6000                      

(X_U7B.22)    1.5569                  (X_U7B.23)    2.4000                      

(X_U7B.25)    1.5578                  (X_U7B.26) 1.099E-06                      

(X_U7B.28)  100.0000                  (X_U7B.34)    1.0200                      

(X_U7B.37)     .0166                  (X_U7B.41)     .0166                  




    VOLTAGE SOURCE CURRENTS
    NAME         CURRENT

    V_V6         3.857E-08
    V_V1        -1.802E-04
    V_V2         1.770E-04
    V_V7         6.286E-08
    X_U6B.VV262  -5.010E-12
    X_U6B.VV261  -1.000E-10
    X_U6B.VV256  -1.910E-10
    X_U6B.VV245   1.611E-12
    X_U6B.VFI100  -3.282E-09
    X_U6B.VIC2  -3.672E-08
    X_U6B.VV219   9.561E-13
    X_U6B.VV234  -5.010E-12
    X_U7B.VV262  -5.010E-12
    X_U7B.VV261  -1.000E-10
    X_U7B.VV256  -1.910E-10
    X_U7B.VV245   1.627E-12
    X_U7B.VFI100   3.044E-06
    X_U7B.VIC2  -3.084E-06
    X_U7B.VV219   1.013E-12
    X_U7B.VV234  -5.010E-12
    X_U3B.VV262  -5.010E-12
    X_U3B.VV261  -1.000E-10
    X_U3B.VV256  -1.910E-10
    X_U3B.VV245   1.612E-12
    X_U3B.VFI100  -3.181E-08
    X_U3B.VIC2  -8.190E-09
    X_U3B.VV219   9.557E-13
    X_U3B.VV234  -5.010E-12
    X_U4B.VV262  -5.010E-12
    X_U4B.VV261  -1.000E-10
    X_U4B.VV256  -1.910E-10
    X_U4B.VV245   1.612E-12
    X_U4B.VFI100  -3.181E-08
    X_U4B.VIC2  -8.190E-09
    X_U4B.VV219   9.557E-13
    X_U4B.VV234  -5.010E-12
    X_U5B.VV262  -5.010E-12
    X_U5B.VV261  -1.000E-10
    X_U5B.VV256  -1.910E-10
    X_U5B.VV245   1.612E-12
    X_U5B.VFI100  -6.748E-08
    X_U5B.VIC2   2.748E-08
    X_U5B.VV219   9.557E-13
    X_U5B.VV234  -5.010E-12

    TOTAL POWER DISSIPATION   8.57E-04  WATTS



          JOB CONCLUDED

**** 07/09/25 18:46:23 ***** PSpice 16.6.0 (October 2012) ***** ID# 0 ********

 ** Profile: "SCHEMATIC1-mul"  [ D:\SIMRAN_GUPTA_INTERN\Orcade\analog_multiplier-pspicefiles\schematic1\mul.sim ] 


 ****     JOB STATISTICS SUMMARY


******************************************************************************



  Total job time (using Solver 1)   =         .75
