
**** 07/08/25 11:03:21 ***** PSpice 24.1.0 (17 April 2025) **** ID# 0 ********

 ** Profile: "SCHEMATIC1-ersgt"  [ f:\swati\orcad_projects\buck_part-pspicefiles\schematic1\ersgt.sim ] 


 ****     CIRCUIT DESCRIPTION


******************************************************************************




** Creating circuit file "ersgt.cir" 
** WARNING: THIS AUTOMATICALLY GENERATED FILE MAY BE OVERWRITTEN BY SUBSEQUENT SIMULATIONS

*Libraries: 
* Profile Libraries :
* Local Libraries :
* From [PSPICE NETLIST] section of C:\Users\Rahul Bhattacharya\AppData\Roaming\SPB_Data\cdssetup\OrCAD_PSpice\24.1.0\PSpice.ini file:
.lib "nom.lib" 

*Analysis directives: 
.TRAN  0 1.5ms 0 0.530u 
.OPTIONS ADVCONV
.AUTOCONVERGE ITL1=1000 ITL2=1000 ITL4=1000 RELTOL=0.05 ABSTOL=1.0E-6 VNTOL=.001 PIVTOL=1.0E-10 
.PROBE64 V(alias(*)) I(alias(*)) W(alias(*)) D(alias(*)) NOISE(alias(*)) 
.INC "..\SCHEMATIC1.net" 



**** INCLUDING SCHEMATIC1.net ****
* source BUCK_PART
C_Chf         N00381 VCONTROL C_Chf 30p  TC=0,0 
.model        C_Chf CAP C=1     DEV 5%/5% TC1=0 TC2=0 VC1=0 VC2=0
C_Ccomp         N00405 VCONTROL C_Ccomp 2n  TC=0,0 
.model        C_Ccomp CAP C=1     DEV 5%/5% TC1=0 TC2=0 VC1=0 VC2=0
R_Rcomp1         N00381 VCONTROL R_Rcomp1 10e6 TC=0,0 
.model        R_Rcomp1 RES R=1     DEV 5%/5% TC1=0 TC2=0
R_Rcomp         N00381 N00405 R_Rcomp 80k TC=0,0 
.model        R_Rcomp RES R=1     DEV 5%/5% TC1=0 TC2=0
R_R1         N00476 N00381 R_R1 1k TC=0,0 
.model        R_R1 RES R=1     DEV 5%/5% TC1=0 TC2=0
R_Rf1         N00476 VBUCK R_Rf1 9.76k TC=0,0 
.model        R_Rf1 RES R=1     DEV 5%/5% TC1=0 TC2=0
R_Rf2         0 N00476 R_Rf2 3.25k TC=0,0 
.model        R_Rf2 RES R=1     DEV 5%/5% TC1=0 TC2=0
X_U1A         VREF N00381 N00618 N00606 VCONTROL LM324
V_V2         VREF 0  
+PULSE 0 2.5 0 4m 2m 1 2
V_V3         N00618 0 12
V_V4         0 N00606 12
V_V5         VBUCK 0   PWL   
+ REPEAT FOREVER 
+ FILE "F:\Swati\Result\buck\first_input_for_buckpart.txt" 
+ ENDREPEAT

**** RESUMING ersgt.cir ****
.END

**** 07/08/25 11:03:21 ***** PSpice 24.1.0 (17 April 2025) **** ID# 0 ********

 ** Profile: "SCHEMATIC1-ersgt"  [ f:\swati\orcad_projects\buck_part-pspicefiles\schematic1\ersgt.sim ] 


 ****     Diode MODEL PARAMETERS


******************************************************************************




               X_U1A.dx        X_U1A.dy        
          IS  800.000000E-18  800.000000E-18 
          RS    1               1.000000E-03 
         CJO                   10.000000E-12 


**** 07/08/25 11:03:21 ***** PSpice 24.1.0 (17 April 2025) **** ID# 0 ********

 ** Profile: "SCHEMATIC1-ersgt"  [ f:\swati\orcad_projects\buck_part-pspicefiles\schematic1\ersgt.sim ] 


 ****     BJT MODEL PARAMETERS


******************************************************************************




               X_U1A.qx        
               PNP             
       LEVEL    1            
          IS  800.000000E-18 
          BF  166.7          
          NF    1            
          BR    1            
          NR    1            
         ISS    0            
          RE    0            
          RC    0            
         CJE    0            
         VJE     .75         
         CJC    0            
         VJC     .75         
         MJC     .33         
        XCJC    1            
         CJS    0            
         VJS     .75         
          KF    0            
          AF    1            
          CN    2.2          
           D     .52         


**** 07/08/25 11:03:21 ***** PSpice 24.1.0 (17 April 2025) **** ID# 0 ********

 ** Profile: "SCHEMATIC1-ersgt"  [ f:\swati\orcad_projects\buck_part-pspicefiles\schematic1\ersgt.sim ] 


 ****     Resistor MODEL PARAMETERS


******************************************************************************




               R_Rcomp1        R_Rcomp         R_R1            R_Rf1           
           R    1               1               1               1            


               R_Rf2           
           R    1            


**** 07/08/25 11:03:21 ***** PSpice 24.1.0 (17 April 2025) **** ID# 0 ********

 ** Profile: "SCHEMATIC1-ersgt"  [ f:\swati\orcad_projects\buck_part-pspicefiles\schematic1\ersgt.sim ] 


 ****     Capacitor MODEL PARAMETERS


******************************************************************************




               C_Chf           C_Ccomp         
           C    1               1            


**** 07/08/25 11:03:21 ***** PSpice 24.1.0 (17 April 2025) **** ID# 0 ********

 ** Profile: "SCHEMATIC1-ersgt"  [ f:\swati\orcad_projects\buck_part-pspicefiles\schematic1\ersgt.sim ] 


 ****     Current Controlled Switch MODEL PARAMETERS


******************************************************************************




               X_U1A.sw2       X_U1A.sw1       X_U1A.sw3       X_U1A.sw4       
         RON    1               1               1               1            
        ROFF   10.000000E+06   10.000000E+06   10.000000E+06   10.000000E+06 
         ION    0              -1.000000E-06   -1.000000E-06    0            
        IOFF   -1.000000E-06    0               0              -1.000000E-06 


**** 07/08/25 11:03:21 ***** PSpice 24.1.0 (17 April 2025) **** ID# 0 ********

 ** Profile: "SCHEMATIC1-ersgt"  [ f:\swati\orcad_projects\buck_part-pspicefiles\schematic1\ersgt.sim ] 


 ****     INITIAL TRANSIENT SOLUTION       TEMPERATURE =   27.000 DEG C


******************************************************************************



 NODE   VOLTAGE     NODE   VOLTAGE     NODE   VOLTAGE     NODE   VOLTAGE


( VREF)    0.0000  (VBUCK) 382.2E-06  (N00381)-180.0E-06 (N00405)-180.0E-06     

(N00476)-99.86E-06 (N00606)  -12.0000 (N00618)   12.0000 (X_U1A.6) 235.8E-06    

(X_U1A.7)   -1.2508                   (X_U1A.8)   -1.2508                       

(X_U1A.9)    0.0000                   (X_U1A.a)   12.0000                       

(X_U1A.b)-4.551E-06                   (VCONTROL)   -1.2508                      

(X_U1A.10)     .6076                  (X_U1A.11)  -11.9600                      

(X_U1A.12)  -11.9600                  (X_U1A.13)     .5937                      

(X_U1A.14)     .5937                  (X_U1A.53)   10.5000                      

(X_U1A.54)  -11.1780                  (X_U1A.90)-125.1E-06                      

(X_U1A.91)   40.0000                  (X_U1A.92)  -40.0000                      

(X_U1A.99)    0.0000                  




    VOLTAGE SOURCE CURRENTS
    NAME         CURRENT

    V_V2         4.474E-08
    V_V3        -2.660E-03
    V_V4        -2.660E-03
    V_V5        -4.939E-08
    X_U1A.vb     2.358E-09
    X_U1A.vc     1.175E-11
    X_U1A.ve     1.146E-11
    X_U1A.vlim  -1.251E-07
    X_U1A.vlp   -4.000E-11
    X_U1A.vln   -4.000E-11

    TOTAL POWER DISSIPATION   6.38E-02  WATTS



          JOB CONCLUDED
 AutoConverge Simulator Options
 ITL1 = 150
 ITL2 = 20
 ITL4 = 10
 RELTOL = 0.001
 ABSTOL = 1e-12
 VNTOL = 1e-06
 PIVTOL = 1e-13

**** 07/08/25 11:03:21 ***** PSpice 24.1.0 (17 April 2025) **** ID# 0 ********

 ** Profile: "SCHEMATIC1-ersgt"  [ f:\swati\orcad_projects\buck_part-pspicefiles\schematic1\ersgt.sim ] 


 ****     JOB STATISTICS SUMMARY


******************************************************************************



  Total job time (using Solver 1)   =        2.77
