
**** 07/08/25 11:02:34 ***** PSpice 24.1.0 (17 April 2025) **** ID# 0 ********

 ** Profile: "SCHEMATIC1-fgh"  [ f:\swati\orcad_projects\buck_converter-pspicefiles\schematic1\fgh.sim ] 


 ****     CIRCUIT DESCRIPTION


******************************************************************************




** Creating circuit file "fgh.cir" 
** WARNING: THIS AUTOMATICALLY GENERATED FILE MAY BE OVERWRITTEN BY SUBSEQUENT SIMULATIONS

*Libraries: 
* Profile Libraries :
* Local Libraries :
* From [PSPICE NETLIST] section of C:\Users\Rahul Bhattacharya\AppData\Roaming\SPB_Data\cdssetup\OrCAD_PSpice\24.1.0\PSpice.ini file:
.lib "nom.lib" 

*Analysis directives: 
.TRAN  0 1.5ms 0 530ns 
.OPTIONS ADVCONV
.PROBE64 V(alias(*)) I(alias(*)) W(alias(*)) D(alias(*)) NOISE(alias(*)) 
.INC "..\SCHEMATIC1.net" 



**** INCLUDING SCHEMATIC1.net ****
* source BUCK_CONVERTER
M_M1         N00261 N00416 N00296 N00296 IRF540
L_L1         N00296 N00310  25uH  
D_D1         0 N00296 Dbreak 
R_R1         N00310 N00314  0.017 TC=0,0 
R_R2         N00314 VBUCK  0.05 TC=0,0 
R_R3         N00292 VBUCK  0.01 TC=0,0 
R_R4         0 VBUCK  6.8 TC=0,0 
C_C1         0 N00292  210u  TC=0,0 
E_E1         N01270 0 POLY(1) N00314 VBUCK 0.0 1
V_V1         N00261 0 25
E_E2         N00416 0 VALUE { if(V(N00481)>1.5,30,0) }
C_C2         0 N00481  1p  TC=0,0 
C_C3         0 N00416  1p  TC=0,0 
E_E3         N00797 0 VALUE { if(V(N01282)>V( VCONTROL),3.5,0) }
X_U1         N00873 N00809 N00834 $G_DPWR $G_DGND NOR2
X_U2         N00834 N00797 N00809 $G_DPWR $G_DGND NOR2
X_U3         N00873 N00834 N00481 $G_DPWR $G_DGND NOR2
V_V2         N00873 0  
+PULSE 0.1 3.5 0 5n 5n 100n 5u
C_C4         0 N00481  1p  TC=0,0 
E_SUM1         N01282 0 VALUE {V(N01270)+V(N01294)}
R_R5         0 N01294  1k TC=0,0 
R_R6         N01659 VCONTROL  10e6 TC=0,0 
R_R7         N01659 N01717  100k TC=0,0 
C_C5         N01717 VCONTROL  2n  TC=0,0 
C_C6         N01659 VCONTROL  30p  TC=0,0 
X_U4A         VREF N01659 N01852 N01837 VCONTROL LM324
R_R8         N01978 VBUCK  9.76k TC=0,0 
R_R9         0 N01978  3.25k TC=0,0 
R_R10         N01659 N01978  1k TC=0,0 
V_V4         0 N01837 12
V_V5         N01852 0 12
V_V6         VREF 0  
+PULSE 0 2.5 0 4m 2m 1 2
R_R11         0 N00809  1Meg TC=0,0 
I_I1         N01294 0 DC 0Adc AC 0Aac
+PULSE 0 -278u 100n 4.95u 2n 2n 5u

**** RESUMING fgh.cir ****
.END


**** Generated AtoD and DtoA Interfaces ****

*
* Analog/Digital interface for node N00481
*
* Moving X_U3.U1:OUT1 from analog node N00481 to new digital node N00481$DtoA
X$N00481_DtoA1
+ N00481$DtoA
+ N00481
+ $G_DPWR
+ $G_DGND
+ DtoAdefault
+       PARAMS: DRVH=  50     DRVL=  50     CAPACITANCE=   0     
*
* Analog/Digital interface for node N00797
*
* Moving X_U2.U1:IN2 from analog node N00797 to new digital node N00797$AtoD
X$N00797_AtoD1
+ N00797
+ N00797$AtoD
+ $G_DPWR
+ $G_DGND
+ AtoDdefault
+       PARAMS: CAPACITANCE=   0     
*
* Analog/Digital interface for node N00873
*
* Moving X_U3.U1:IN1 from analog node N00873 to new digital node N00873$AtoD
X$N00873_AtoD1
+ N00873
+ N00873$AtoD
+ $G_DPWR
+ $G_DGND
+ AtoDdefault
+       PARAMS: CAPACITANCE=   0     
* Moving X_U1.U1:IN1 from analog node N00873 to new digital node N00873$AtoD2
X$N00873_AtoD2
+ N00873
+ N00873$AtoD2
+ $G_DPWR
+ $G_DGND
+ AtoDdefault
+       PARAMS: CAPACITANCE=   0     
*
* Analog/Digital interface for node N00809
*
* Moving X_U1.U1:IN2 from analog node N00809 to new digital node N00809$AtoD
X$N00809_AtoD1
+ N00809
+ N00809$AtoD
+ $G_DPWR
+ $G_DGND
+ AtoDdefault
+       PARAMS: CAPACITANCE=   0     
* Moving X_U2.U1:OUT1 from analog node N00809 to new digital node N00809$DtoA
X$N00809_DtoA1
+ N00809$DtoA
+ N00809
+ $G_DPWR
+ $G_DGND
+ DtoAdefault
+       PARAMS: DRVH=  50     DRVL=  50     CAPACITANCE=   0     
*
* Analog/Digital interface power supply subcircuits
*
X$DIGIFPWR 0 DIGIFPWR


**** 07/08/25 11:02:34 ***** PSpice 24.1.0 (17 April 2025) **** ID# 0 ********

 ** Profile: "SCHEMATIC1-fgh"  [ f:\swati\orcad_projects\buck_converter-pspicefiles\schematic1\fgh.sim ] 


 ****     Diode MODEL PARAMETERS


******************************************************************************




               Dbreak          X_U4A.dx        X_U4A.dy        
          IS   10.000000E-15  800.000000E-18  800.000000E-18 
          RS     .1             1               1.000000E-03 
         CJO  100.000000E-15                   10.000000E-12 


**** 07/08/25 11:02:34 ***** PSpice 24.1.0 (17 April 2025) **** ID# 0 ********

 ** Profile: "SCHEMATIC1-fgh"  [ f:\swati\orcad_projects\buck_converter-pspicefiles\schematic1\fgh.sim ] 


 ****     BJT MODEL PARAMETERS


******************************************************************************




               X_U4A.qx        
               PNP             
       LEVEL    1            
          IS  800.000000E-18 
          BF  166.7          
          NF    1            
          BR    1            
          NR    1            
         ISS    0            
          RE    0            
          RC    0            
         CJE    0            
         VJE     .75         
         CJC    0            
         VJC     .75         
         MJC     .33         
        XCJC    1            
         CJS    0            
         VJS     .75         
          KF    0            
          AF    1            
          CN    2.2          
           D     .52         


**** 07/08/25 11:02:34 ***** PSpice 24.1.0 (17 April 2025) **** ID# 0 ********

 ** Profile: "SCHEMATIC1-fgh"  [ f:\swati\orcad_projects\buck_converter-pspicefiles\schematic1\fgh.sim ] 


 ****     MOSFET MODEL PARAMETERS


******************************************************************************




               IRF540          
               NMOS            
       LEVEL    3            
           L    2.000000E-06 
           W     .94         
         VTO    3.136        
          KP   20.710000E-06 
       GAMMA    0            
         PHI     .6          
      LAMBDA    0            
          RD     .02252      
          RS     .02134      
          RG    5.557        
         RDS  444.400000E+03 
          IS    2.859000E-12 
          JS    0            
          PB     .8          
        PBSW     .8          
         CBD    2.408000E-09 
          CJ    0            
        CJSW    0            
          TT  142.000000E-09 
        CGSO    1.153000E-09 
        CGDO  445.700000E-12 
        CGBO    0            
         TOX  100.000000E-09 
          XJ    0            
       UCRIT   10.000000E+03 
       DELTA    0            
         ETA    0            
      DIOMOD    1            
         VFB    0            
        LETA    0            
        WETA    0            
          U0    0            
        TEMP    0            
         VDD    5            
       XPART    0            


**** 07/08/25 11:02:34 ***** PSpice 24.1.0 (17 April 2025) **** ID# 0 ********

 ** Profile: "SCHEMATIC1-fgh"  [ f:\swati\orcad_projects\buck_converter-pspicefiles\schematic1\fgh.sim ] 


 ****     Current Controlled Switch MODEL PARAMETERS


******************************************************************************




               X_U4A.sw2       X_U4A.sw1       X_U4A.sw3       X_U4A.sw4       
         RON    1               1               1               1            
        ROFF   10.000000E+06   10.000000E+06   10.000000E+06   10.000000E+06 
         ION    0              -1.000000E-06   -1.000000E-06    0            
        IOFF   -1.000000E-06    0               0              -1.000000E-06 


**** 07/08/25 11:02:34 ***** PSpice 24.1.0 (17 April 2025) **** ID# 0 ********

 ** Profile: "SCHEMATIC1-fgh"  [ f:\swati\orcad_projects\buck_converter-pspicefiles\schematic1\fgh.sim ] 


 ****     Digital Input MODEL PARAMETERS


******************************************************************************




               DIN74           
      S0NAME 0               
       S0TSW    3.500000E-09 
       S0RLO    7.13         
       S0RHI  389            
      S1NAME 1               
       S1TSW    5.500000E-09 
       S1RLO  467            
       S1RHI  200            
      S2NAME X               
       S2TSW    3.500000E-09 
       S2RLO   42.9          
       S2RHI  116            
      S3NAME R               
       S3TSW    3.500000E-09 
       S3RLO   42.9          
       S3RHI  116            
      S4NAME F               
       S4TSW    3.500000E-09 
       S4RLO   42.9          
       S4RHI  116            
      S5NAME Z               
       S5TSW    3.500000E-09 
       S5RLO  200.000000E+03 
       S5RHI  200.000000E+03 


**** 07/08/25 11:02:34 ***** PSpice 24.1.0 (17 April 2025) **** ID# 0 ********

 ** Profile: "SCHEMATIC1-fgh"  [ f:\swati\orcad_projects\buck_converter-pspicefiles\schematic1\fgh.sim ] 


 ****     Digital Output MODEL PARAMETERS


******************************************************************************




               DO74            
    TIMESTEP  100.000000E-12 
      S0NAME X               
       S0VHI    2            
       S0VLO     .8          
      S1NAME 0               
       S1VHI     .8          
       S1VLO   -1.5          
      S2NAME R               
       S2VHI    1.4          
       S2VLO     .8          
      S3NAME R               
       S3VHI    2            
       S3VLO    1.3          
      S4NAME X               
       S4VHI    2            
       S4VLO     .8          
      S5NAME 1               
       S5VHI    7            
       S5VLO    2            
      S6NAME F               
       S6VHI    2            
       S6VLO    1.3          
      S7NAME F               
       S7VHI    1.4          
       S7VLO     .8          


**** 07/08/25 11:02:34 ***** PSpice 24.1.0 (17 April 2025) **** ID# 0 ********

 ** Profile: "SCHEMATIC1-fgh"  [ f:\swati\orcad_projects\buck_converter-pspicefiles\schematic1\fgh.sim ] 


 ****     Digital Gate MODEL PARAMETERS


******************************************************************************




               D_PLD_GATE      
      TPLHMN    0            
      TPLHTY    0            
      TPLHMX    0            
      TPHLMN    0            
      TPHLTY    0            
      TPHLMX    0            


**** 07/08/25 11:02:34 ***** PSpice 24.1.0 (17 April 2025) **** ID# 0 ********

 ** Profile: "SCHEMATIC1-fgh"  [ f:\swati\orcad_projects\buck_converter-pspicefiles\schematic1\fgh.sim ] 


 ****     Digital IO  MODEL PARAMETERS


******************************************************************************




               IO_PLD          IO_DFT          
       AtoD1                 AtoD_STD        
       AtoD2                 AtoD_STD_NX     
       AtoD3                 AtoD_STD        
       AtoD4                 AtoD_STD_NX     
       DtoA1                 DtoA_STD        
       DtoA2                 DtoA_STD        
       DtoA3                 DtoA_STD        
       DtoA4                 DtoA_STD        
       TPWRT  100.000000E+03  100.000000E+03 


**** 07/08/25 11:02:34 ***** PSpice 24.1.0 (17 April 2025) **** ID# 0 ********

 ** Profile: "SCHEMATIC1-fgh"  [ f:\swati\orcad_projects\buck_converter-pspicefiles\schematic1\fgh.sim ] 


 ****     INITIAL TRANSIENT SOLUTION       TEMPERATURE =   27.000 DEG C


******************************************************************************



 NODE   VOLTAGE     NODE   VOLTAGE     NODE   VOLTAGE     NODE   VOLTAGE


( VREF)    0.0000  (VBUCK) 382.2E-06  (N00261)   25.0000 (N00292) 382.2E-06     

(N00296) 386.0E-06 (N00310) 386.0E-06 (N00314) 385.0E-06 (N00416)    0.0000     

(N00481)     .0900 (N00797)    3.5000 (N00809)     .0900 (N00873)     .1000     

(N01270) 2.813E-06 (N01282) 2.813E-06 (N01294)    0.0000 (N01659)-180.0E-06     

(N01717)-180.0E-06 (N01837)  -12.0000 (N01852)   12.0000 (N01978)-99.86E-06     

($G_DGND)    0.0000                   ($G_DPWR)    5.0000                       

(X_U4A.6) 235.8E-06                   (X_U4A.7)   -1.2508                       

(X_U4A.8)   -1.2508                   (X_U4A.9)    0.0000                       

(X_U4A.a)   12.0000                   (X_U4A.b)-4.551E-06                       

(VCONTROL)   -1.2508                  (X_U4A.10)     .6076                      

(X_U4A.11)  -11.9600                  (X_U4A.12)  -11.9600                      

(X_U4A.13)     .5937                  (X_U4A.14)     .5937                      

(X_U4A.53)   10.5000                  (X_U4A.54)  -11.1780                      

(X_U4A.90)-125.1E-06                  (X_U4A.91)   40.0000                      

(X_U4A.92)  -40.0000                  (X_U4A.99)    0.0000                  



 DGTL NODE : STATE  DGTL NODE : STATE  DGTL NODE : STATE  DGTL NODE : STATE


(N00481$DtoA) : 0  (N00873$AtoD2) : 0                    (N00809$DtoA) : 0      

(N00873$AtoD) : 0  (N00797$AtoD) : 1  (N00809$AtoD) : 0  (  N00834) : 1     




    VOLTAGE SOURCE CURRENTS
    NAME         CURRENT

    V_V1        -5.625E-05
    V_V2        -2.000E-13
    V_V4        -2.660E-03
    V_V5        -2.660E-03
    V_V6         4.474E-08
    X_U4A.vb     2.358E-09
    X_U4A.vc     1.175E-11
    X_U4A.ve     1.146E-11
    X_U4A.vlim  -1.251E-07
    X_U4A.vlp   -4.000E-11
    X_U4A.vln   -4.000E-11
    X$DIGIFPWR.VDPWR  -2.525E-02
    X$DIGIFPWR.VDGND  -5.090E-06

    TOTAL POWER DISSIPATION   1.91E-01  WATTS


**** 07/08/25 11:02:34 ***** PSpice 24.1.0 (17 April 2025) **** ID# 0 ********

 ** Profile: "SCHEMATIC1-fgh"  [ f:\swati\orcad_projects\buck_converter-pspicefiles\schematic1\fgh.sim ] 


 ****     SIMULATION ERRORS


******************************************************************************




DIGITAL Message ID#1 (WARNING):
AMBIGUITY CONVERGENCE Hazard at time 1.1ns
  Device: X_U3.U1
  NODEs: N00873$AtoD (IN1),
         N00834 (IN2) => N00481$DtoA (OUT1)  

DIGITAL Message ID#2 (SERIOUS):
PERSISTENT Hazard at time 1.1ns
  On D/A Node "N00481$DtoA"
  See Message ID#1 for probable cause.

DIGITAL Message ID#3 (SERIOUS):
PERSISTENT Hazard at time 1.1ns
  Device: On D/A interface X$N00481_DtoA1.N1, "N00481$DtoA"
  See Message ID#1 for probable cause.

DIGITAL Message ID#4 (WARNING):
AMBIGUITY CONVERGENCE Hazard at time 107.3ns
  Device: X_U3.U1
  NODEs: N00873$AtoD (IN1),
         N00834 (IN2) => N00481$DtoA (OUT1)  

DIGITAL Message ID#5 (SERIOUS):
PERSISTENT Hazard at time 107.3ns
  On D/A Node "N00481$DtoA"
  See Message ID#4 for probable cause.

DIGITAL Message ID#6 (SERIOUS):
PERSISTENT Hazard at time 107.3ns
  Device: On D/A interface X$N00481_DtoA1.N1, "N00481$DtoA"
  See Message ID#4 for probable cause.

DIGITAL Message ID#7 (SERIOUS):
PERSISTENT Hazard at time 109ns
  On D/A Node "N00481$DtoA"
  See Message ID#4 for probable cause.

DIGITAL Message ID#8 (WARNING):
AMBIGUITY CONVERGENCE Hazard at time 5.0011us
  Device: X_U3.U1
  NODEs: N00873$AtoD (IN1),
         N00834 (IN2) => N00481$DtoA (OUT1)  

DIGITAL Message ID#9 (SERIOUS):
PERSISTENT Hazard at time 5.0011us
  On D/A Node "N00481$DtoA"
  See Message ID#8 for probable cause.

DIGITAL Message ID#10 (SERIOUS):
PERSISTENT Hazard at time 5.0011us
  Device: On D/A interface X$N00481_DtoA1.N1, "N00481$DtoA"
  See Message ID#8 for probable cause.

DIGITAL Message ID#11 (WARNING):
AMBIGUITY CONVERGENCE Hazard at time 5.1073us
  Device: X_U3.U1
  NODEs: N00873$AtoD (IN1),
         N00834 (IN2) => N00481$DtoA (OUT1)  

DIGITAL Message ID#12 (SERIOUS):
PERSISTENT Hazard at time 5.1073us
  On D/A Node "N00481$DtoA"
  See Message ID#11 for probable cause.

DIGITAL Message ID#13 (SERIOUS):
PERSISTENT Hazard at time 5.1073us
  Device: On D/A interface X$N00481_DtoA1.N1, "N00481$DtoA"
  See Message ID#11 for probable cause.

DIGITAL Message ID#14 (SERIOUS):
PERSISTENT Hazard at time 5.109us
  On D/A Node "N00481$DtoA"
  See Message ID#11 for probable cause.

DIGITAL Message ID#15 (WARNING):
AMBIGUITY CONVERGENCE Hazard at time 10.0011us
  Device: X_U3.U1
  NODEs: N00873$AtoD (IN1),
         N00834 (IN2) => N00481$DtoA (OUT1)  

DIGITAL Message ID#16 (SERIOUS):
PERSISTENT Hazard at time 10.0011us
  On D/A Node "N00481$DtoA"
  See Message ID#15 for probable cause.

DIGITAL Message ID#17 (SERIOUS):
PERSISTENT Hazard at time 10.0011us
  Device: On D/A interface X$N00481_DtoA1.N1, "N00481$DtoA"
  See Message ID#15 for probable cause.

DIGITAL Message ID#18 (WARNING):
AMBIGUITY CONVERGENCE Hazard at time 10.1073us
  Device: X_U3.U1
  NODEs: N00873$AtoD (IN1),
         N00834 (IN2) => N00481$DtoA (OUT1)  

DIGITAL Message ID#19 (SERIOUS):
PERSISTENT Hazard at time 10.1073us
  On D/A Node "N00481$DtoA"
  See Message ID#18 for probable cause.

DIGITAL Message ID#20 (SERIOUS):
PERSISTENT Hazard at time 10.1073us
  Device: On D/A interface X$N00481_DtoA1.N1, "N00481$DtoA"
  See Message ID#18 for probable cause.

DIGITAL Message ID#21 (SERIOUS):
PERSISTENT Hazard at time 10.109us
  On D/A Node "N00481$DtoA"
  See Message ID#18 for probable cause.

DIGITAL Message ID#22 (WARNING):
AMBIGUITY CONVERGENCE Hazard at time 15.0011us
  Device: X_U3.U1
  NODEs: N00873$AtoD (IN1),
         N00834 (IN2) => N00481$DtoA (OUT1)  

DIGITAL Message ID#23 (SERIOUS):
PERSISTENT Hazard at time 15.0011us
  On D/A Node "N00481$DtoA"
  See Message ID#22 for probable cause.

DIGITAL Message ID#24 (SERIOUS):
PERSISTENT Hazard at time 15.0011us
  Device: On D/A interface X$N00481_DtoA1.N1, "N00481$DtoA"
  See Message ID#22 for probable cause.

DIGITAL Message ID#25 (WARNING):
AMBIGUITY CONVERGENCE Hazard at time 15.1073us
  Device: X_U3.U1
  NODEs: N00873$AtoD (IN1),
         N00834 (IN2) => N00481$DtoA (OUT1)  

DIGITAL Message ID#26 (SERIOUS):
PERSISTENT Hazard at time 15.1073us
  On D/A Node "N00481$DtoA"
  See Message ID#25 for probable cause.

DIGITAL Message ID#27 (SERIOUS):
PERSISTENT Hazard at time 15.1073us
  Device: On D/A interface X$N00481_DtoA1.N1, "N00481$DtoA"
  See Message ID#25 for probable cause.

DIGITAL Message ID#28 (SERIOUS):
PERSISTENT Hazard at time 15.109us
  On D/A Node "N00481$DtoA"
  See Message ID#25 for probable cause.

DIGITAL Message ID#29 (WARNING):
AMBIGUITY CONVERGENCE Hazard at time 20.0011us
  Device: X_U3.U1
  NODEs: N00873$AtoD (IN1),
         N00834 (IN2) => N00481$DtoA (OUT1)  

DIGITAL Message ID#30 (SERIOUS):
PERSISTENT Hazard at time 20.0011us
  On D/A Node "N00481$DtoA"
  See Message ID#29 for probable cause.

DIGITAL Message ID#31 (SERIOUS):
PERSISTENT Hazard at time 20.0011us
  Device: On D/A interface X$N00481_DtoA1.N1, "N00481$DtoA"
  See Message ID#29 for probable cause.

DIGITAL Message ID#32 (WARNING):
AMBIGUITY CONVERGENCE Hazard at time 20.1073us
  Device: X_U3.U1
  NODEs: N00873$AtoD (IN1),
         N00834 (IN2) => N00481$DtoA (OUT1)  

DIGITAL Message ID#33 (SERIOUS):
PERSISTENT Hazard at time 20.1073us
  On D/A Node "N00481$DtoA"
  See Message ID#32 for probable cause.

DIGITAL Message ID#34 (SERIOUS):
PERSISTENT Hazard at time 20.1073us
  Device: On D/A interface X$N00481_DtoA1.N1, "N00481$DtoA"
  See Message ID#32 for probable cause.

DIGITAL Message ID#35 (SERIOUS):
PERSISTENT Hazard at time 20.109us
  On D/A Node "N00481$DtoA"
  See Message ID#32 for probable cause.

DIGITAL Message ID#36 (WARNING):
AMBIGUITY CONVERGENCE Hazard at time 25.0011us
  Device: X_U3.U1
  NODEs: N00873$AtoD (IN1),
         N00834 (IN2) => N00481$DtoA (OUT1)  

DIGITAL Message ID#37 (SERIOUS):
PERSISTENT Hazard at time 25.0011us
  On D/A Node "N00481$DtoA"
  See Message ID#36 for probable cause.

DIGITAL Message ID#38 (SERIOUS):
PERSISTENT Hazard at time 25.0011us
  Device: On D/A interface X$N00481_DtoA1.N1, "N00481$DtoA"
  See Message ID#36 for probable cause.

DIGITAL Message ID#39 (WARNING):
AMBIGUITY CONVERGENCE Hazard at time 25.1073us
  Device: X_U3.U1
  NODEs: N00873$AtoD (IN1),
         N00834 (IN2) => N00481$DtoA (OUT1)  

DIGITAL Message ID#40 (SERIOUS):
PERSISTENT Hazard at time 25.1073us
  On D/A Node "N00481$DtoA"
  See Message ID#39 for probable cause.

DIGITAL Message ID#41 (SERIOUS):
PERSISTENT Hazard at time 25.1073us
  Device: On D/A interface X$N00481_DtoA1.N1, "N00481$DtoA"
  See Message ID#39 for probable cause.

DIGITAL Message ID#42 (SERIOUS):
PERSISTENT Hazard at time 25.109us
  On D/A Node "N00481$DtoA"
  See Message ID#39 for probable cause.

DIGITAL Message ID#43 (WARNING):
AMBIGUITY CONVERGENCE Hazard at time 30.0011us
  Device: X_U3.U1
  NODEs: N00873$AtoD (IN1),
         N00834 (IN2) => N00481$DtoA (OUT1)  

DIGITAL Message ID#44 (SERIOUS):
PERSISTENT Hazard at time 30.0011us
  On D/A Node "N00481$DtoA"
  See Message ID#43 for probable cause.

DIGITAL Message ID#45 (SERIOUS):
PERSISTENT Hazard at time 30.0011us
  Device: On D/A interface X$N00481_DtoA1.N1, "N00481$DtoA"
  See Message ID#43 for probable cause.

DIGITAL Message ID#46 (WARNING):
AMBIGUITY CONVERGENCE Hazard at time 30.1073us
  Device: X_U3.U1
  NODEs: N00873$AtoD (IN1),
         N00834 (IN2) => N00481$DtoA (OUT1)  

DIGITAL Message ID#47 (SERIOUS):
PERSISTENT Hazard at time 30.1073us
  On D/A Node "N00481$DtoA"
  See Message ID#46 for probable cause.

DIGITAL Message ID#48 (SERIOUS):
PERSISTENT Hazard at time 30.1073us
  Device: On D/A interface X$N00481_DtoA1.N1, "N00481$DtoA"
  See Message ID#46 for probable cause.

DIGITAL Message ID#49 (SERIOUS):
PERSISTENT Hazard at time 30.109us
  On D/A Node "N00481$DtoA"
  See Message ID#46 for probable cause.

DIGITAL Message ID#50 (WARNING):
AMBIGUITY CONVERGENCE Hazard at time 35.0011us
  Device: X_U3.U1
  NODEs: N00873$AtoD (IN1),
         N00834 (IN2) => N00481$DtoA (OUT1)  

DIGITAL Message ID#51 (SERIOUS):
PERSISTENT Hazard at time 35.0011us
  On D/A Node "N00481$DtoA"
  See Message ID#50 for probable cause.

DIGITAL Message ID#52 (SERIOUS):
PERSISTENT Hazard at time 35.0011us
  Device: On D/A interface X$N00481_DtoA1.N1, "N00481$DtoA"
  See Message ID#50 for probable cause.

DIGITAL Message ID#53 (WARNING):
AMBIGUITY CONVERGENCE Hazard at time 35.1073us
  Device: X_U3.U1
  NODEs: N00873$AtoD (IN1),
         N00834 (IN2) => N00481$DtoA (OUT1)  

DIGITAL Message ID#54 (SERIOUS):
PERSISTENT Hazard at time 35.1073us
  On D/A Node "N00481$DtoA"
  See Message ID#53 for probable cause.

DIGITAL Message ID#55 (SERIOUS):
PERSISTENT Hazard at time 35.1073us
  Device: On D/A interface X$N00481_DtoA1.N1, "N00481$DtoA"
  See Message ID#53 for probable cause.

DIGITAL Message ID#56 (SERIOUS):
PERSISTENT Hazard at time 35.109us
  On D/A Node "N00481$DtoA"
  See Message ID#53 for probable cause.

DIGITAL Message ID#57 (WARNING):
AMBIGUITY CONVERGENCE Hazard at time 40.0011us
  Device: X_U3.U1
  NODEs: N00873$AtoD (IN1),
         N00834 (IN2) => N00481$DtoA (OUT1)  

DIGITAL Message ID#58 (SERIOUS):
PERSISTENT Hazard at time 40.0011us
  On D/A Node "N00481$DtoA"
  See Message ID#57 for probable cause.

DIGITAL Message ID#59 (SERIOUS):
PERSISTENT Hazard at time 40.0011us
  Device: On D/A interface X$N00481_DtoA1.N1, "N00481$DtoA"
  See Message ID#57 for probable cause.

DIGITAL Message ID#60 (WARNING):
AMBIGUITY CONVERGENCE Hazard at time 40.1073us
  Device: X_U3.U1
  NODEs: N00873$AtoD (IN1),
         N00834 (IN2) => N00481$DtoA (OUT1)  

DIGITAL Message ID#61 (SERIOUS):
PERSISTENT Hazard at time 40.1073us
  On D/A Node "N00481$DtoA"
  See Message ID#60 for probable cause.

DIGITAL Message ID#62 (SERIOUS):
PERSISTENT Hazard at time 40.1073us
  Device: On D/A interface X$N00481_DtoA1.N1, "N00481$DtoA"
  See Message ID#60 for probable cause.

DIGITAL Message ID#63 (SERIOUS):
PERSISTENT Hazard at time 40.109us
  On D/A Node "N00481$DtoA"
  See Message ID#60 for probable cause.

DIGITAL Message ID#64 (WARNING):
AMBIGUITY CONVERGENCE Hazard at time 45.0011us
  Device: X_U3.U1
  NODEs: N00873$AtoD (IN1),
         N00834 (IN2) => N00481$DtoA (OUT1)  

DIGITAL Message ID#65 (SERIOUS):
PERSISTENT Hazard at time 45.0011us
  On D/A Node "N00481$DtoA"
  See Message ID#64 for probable cause.

DIGITAL Message ID#66 (SERIOUS):
PERSISTENT Hazard at time 45.0011us
  Device: On D/A interface X$N00481_DtoA1.N1, "N00481$DtoA"
  See Message ID#64 for probable cause.

DIGITAL Message ID#67 (WARNING):
AMBIGUITY CONVERGENCE Hazard at time 45.1073us
  Device: X_U3.U1
  NODEs: N00873$AtoD (IN1),
         N00834 (IN2) => N00481$DtoA (OUT1)  

DIGITAL Message ID#68 (SERIOUS):
PERSISTENT Hazard at time 45.1073us
  On D/A Node "N00481$DtoA"
  See Message ID#67 for probable cause.

DIGITAL Message ID#69 (SERIOUS):
PERSISTENT Hazard at time 45.1073us
  Device: On D/A interface X$N00481_DtoA1.N1, "N00481$DtoA"
  See Message ID#67 for probable cause.

DIGITAL Message ID#70 (SERIOUS):
PERSISTENT Hazard at time 45.109us
  On D/A Node "N00481$DtoA"
  See Message ID#67 for probable cause.

DIGITAL Message ID#71 (WARNING):
AMBIGUITY CONVERGENCE Hazard at time 50.0011us
  Device: X_U3.U1
  NODEs: N00873$AtoD (IN1),
         N00834 (IN2) => N00481$DtoA (OUT1)  

DIGITAL Message ID#72 (SERIOUS):
PERSISTENT Hazard at time 50.0011us
  On D/A Node "N00481$DtoA"
  See Message ID#71 for probable cause.

DIGITAL Message ID#73 (SERIOUS):
PERSISTENT Hazard at time 50.0011us
  Device: On D/A interface X$N00481_DtoA1.N1, "N00481$DtoA"
  See Message ID#71 for probable cause.

DIGITAL Message ID#74 (WARNING):
AMBIGUITY CONVERGENCE Hazard at time 50.1073us
  Device: X_U3.U1
  NODEs: N00873$AtoD (IN1),
         N00834 (IN2) => N00481$DtoA (OUT1)  

DIGITAL Message ID#75 (SERIOUS):
PERSISTENT Hazard at time 50.1073us
  On D/A Node "N00481$DtoA"
  See Message ID#74 for probable cause.

DIGITAL Message ID#76 (SERIOUS):
PERSISTENT Hazard at time 50.1073us
  Device: On D/A interface X$N00481_DtoA1.N1, "N00481$DtoA"
  See Message ID#74 for probable cause.

DIGITAL Message ID#77 (SERIOUS):
PERSISTENT Hazard at time 50.109us
  On D/A Node "N00481$DtoA"
  See Message ID#74 for probable cause.

DIGITAL Message ID#78 (WARNING):
AMBIGUITY CONVERGENCE Hazard at time 55.0011us
  Device: X_U3.U1
  NODEs: N00873$AtoD (IN1),
         N00834 (IN2) => N00481$DtoA (OUT1)  

DIGITAL Message ID#79 (SERIOUS):
PERSISTENT Hazard at time 55.0011us
  On D/A Node "N00481$DtoA"
  See Message ID#78 for probable cause.

DIGITAL Message ID#80 (SERIOUS):
PERSISTENT Hazard at time 55.0011us
  Device: On D/A interface X$N00481_DtoA1.N1, "N00481$DtoA"
  See Message ID#78 for probable cause.

DIGITAL Message ID#81 (WARNING):
AMBIGUITY CONVERGENCE Hazard at time 55.1073us
  Device: X_U3.U1
  NODEs: N00873$AtoD (IN1),
         N00834 (IN2) => N00481$DtoA (OUT1)  

DIGITAL Message ID#82 (SERIOUS):
PERSISTENT Hazard at time 55.1073us
  On D/A Node "N00481$DtoA"
  See Message ID#81 for probable cause.

DIGITAL Message ID#83 (SERIOUS):
PERSISTENT Hazard at time 55.1073us
  Device: On D/A interface X$N00481_DtoA1.N1, "N00481$DtoA"
  See Message ID#81 for probable cause.

DIGITAL Message ID#84 (SERIOUS):
PERSISTENT Hazard at time 55.109us
  On D/A Node "N00481$DtoA"
  See Message ID#81 for probable cause.

DIGITAL Message ID#85 (WARNING):
AMBIGUITY CONVERGENCE Hazard at time 60.0011us
  Device: X_U3.U1
  NODEs: N00873$AtoD (IN1),
         N00834 (IN2) => N00481$DtoA (OUT1)  

DIGITAL Message ID#86 (SERIOUS):
PERSISTENT Hazard at time 60.0011us
  On D/A Node "N00481$DtoA"
  See Message ID#85 for probable cause.

DIGITAL Message ID#87 (SERIOUS):
PERSISTENT Hazard at time 60.0011us
  Device: On D/A interface X$N00481_DtoA1.N1, "N00481$DtoA"
  See Message ID#85 for probable cause.

DIGITAL Message ID#88 (WARNING):
AMBIGUITY CONVERGENCE Hazard at time 60.1073us
  Device: X_U3.U1
  NODEs: N00873$AtoD (IN1),
         N00834 (IN2) => N00481$DtoA (OUT1)  

DIGITAL Message ID#89 (SERIOUS):
PERSISTENT Hazard at time 60.1073us
  On D/A Node "N00481$DtoA"
  See Message ID#88 for probable cause.

DIGITAL Message ID#90 (SERIOUS):
PERSISTENT Hazard at time 60.1073us
  Device: On D/A interface X$N00481_DtoA1.N1, "N00481$DtoA"
  See Message ID#88 for probable cause.

DIGITAL Message ID#91 (SERIOUS):
PERSISTENT Hazard at time 60.109us
  On D/A Node "N00481$DtoA"
  See Message ID#88 for probable cause.

DIGITAL Message ID#92 (WARNING):
AMBIGUITY CONVERGENCE Hazard at time 65.0011us
  Device: X_U3.U1
  NODEs: N00873$AtoD (IN1),
         N00834 (IN2) => N00481$DtoA (OUT1)  

DIGITAL Message ID#93 (SERIOUS):
PERSISTENT Hazard at time 65.0011us
  On D/A Node "N00481$DtoA"
  See Message ID#92 for probable cause.

DIGITAL Message ID#94 (SERIOUS):
PERSISTENT Hazard at time 65.0011us
  Device: On D/A interface X$N00481_DtoA1.N1, "N00481$DtoA"
  See Message ID#92 for probable cause.

DIGITAL Message ID#95 (WARNING):
AMBIGUITY CONVERGENCE Hazard at time 65.1073us
  Device: X_U3.U1
  NODEs: N00873$AtoD (IN1),
         N00834 (IN2) => N00481$DtoA (OUT1)  

DIGITAL Message ID#96 (SERIOUS):
PERSISTENT Hazard at time 65.1073us
  On D/A Node "N00481$DtoA"
  See Message ID#95 for probable cause.

DIGITAL Message ID#97 (SERIOUS):
PERSISTENT Hazard at time 65.1073us
  Device: On D/A interface X$N00481_DtoA1.N1, "N00481$DtoA"
  See Message ID#95 for probable cause.

DIGITAL Message ID#98 (SERIOUS):
PERSISTENT Hazard at time 65.109us
  On D/A Node "N00481$DtoA"
  See Message ID#95 for probable cause.

DIGITAL Message ID#99 (WARNING):
AMBIGUITY CONVERGENCE Hazard at time 70.0011us
  Device: X_U3.U1
  NODEs: N00873$AtoD (IN1),
         N00834 (IN2) => N00481$DtoA (OUT1)  

DIGITAL Message ID#100 (SERIOUS):
PERSISTENT Hazard at time 70.0011us
  On D/A Node "N00481$DtoA"
  See Message ID#99 for probable cause.

DIGITAL Message ID#101 (SERIOUS):
PERSISTENT Hazard at time 70.0011us
  Device: On D/A interface X$N00481_DtoA1.N1, "N00481$DtoA"
  See Message ID#99 for probable cause.

DIGITAL Message ID#102 (WARNING):
AMBIGUITY CONVERGENCE Hazard at time 75.0011us
  Device: X_U3.U1
  NODEs: N00873$AtoD (IN1),
         N00834 (IN2) => N00481$DtoA (OUT1)  

DIGITAL Message ID#103 (SERIOUS):
PERSISTENT Hazard at time 75.0011us
  On D/A Node "N00481$DtoA"
  See Message ID#102 for probable cause.

DIGITAL Message ID#104 (SERIOUS):
PERSISTENT Hazard at time 75.0011us
  Device: On D/A interface X$N00481_DtoA1.N1, "N00481$DtoA"
  See Message ID#102 for probable cause.

DIGITAL Message ID#105 (WARNING):
AMBIGUITY CONVERGENCE Hazard at time 80.0011us
  Device: X_U3.U1
  NODEs: N00873$AtoD (IN1),
         N00834 (IN2) => N00481$DtoA (OUT1)  

DIGITAL Message ID#106 (SERIOUS):
PERSISTENT Hazard at time 80.0011us
  On D/A Node "N00481$DtoA"
  See Message ID#105 for probable cause.

DIGITAL Message ID#107 (SERIOUS):
PERSISTENT Hazard at time 80.0011us
  Device: On D/A interface X$N00481_DtoA1.N1, "N00481$DtoA"
  See Message ID#105 for probable cause.

DIGITAL Message ID#108 (WARNING):
AMBIGUITY CONVERGENCE Hazard at time 85.0011us
  Device: X_U3.U1
  NODEs: N00873$AtoD (IN1),
         N00834 (IN2) => N00481$DtoA (OUT1)  

DIGITAL Message ID#109 (SERIOUS):
PERSISTENT Hazard at time 85.0011us
  On D/A Node "N00481$DtoA"
  See Message ID#108 for probable cause.

DIGITAL Message ID#110 (SERIOUS):
PERSISTENT Hazard at time 85.0011us
  Device: On D/A interface X$N00481_DtoA1.N1, "N00481$DtoA"
  See Message ID#108 for probable cause.

DIGITAL Message ID#111 (WARNING):
AMBIGUITY CONVERGENCE Hazard at time 85.1073us
  Device: X_U3.U1
  NODEs: N00873$AtoD (IN1),
         N00834 (IN2) => N00481$DtoA (OUT1)  

DIGITAL Message ID#112 (SERIOUS):
PERSISTENT Hazard at time 85.1073us
  On D/A Node "N00481$DtoA"
  See Message ID#111 for probable cause.

DIGITAL Message ID#113 (SERIOUS):
PERSISTENT Hazard at time 85.1073us
  Device: On D/A interface X$N00481_DtoA1.N1, "N00481$DtoA"
  See Message ID#111 for probable cause.

DIGITAL Message ID#114 (SERIOUS):
PERSISTENT Hazard at time 85.109us
  On D/A Node "N00481$DtoA"
  See Message ID#111 for probable cause.

DIGITAL Message ID#115 (WARNING):
AMBIGUITY CONVERGENCE Hazard at time 90.0011us
  Device: X_U3.U1
  NODEs: N00873$AtoD (IN1),
         N00834 (IN2) => N00481$DtoA (OUT1)  

DIGITAL Message ID#116 (SERIOUS):
PERSISTENT Hazard at time 90.0011us
  On D/A Node "N00481$DtoA"
  See Message ID#115 for probable cause.

DIGITAL Message ID#117 (SERIOUS):
PERSISTENT Hazard at time 90.0011us
  Device: On D/A interface X$N00481_DtoA1.N1, "N00481$DtoA"
  See Message ID#115 for probable cause.

DIGITAL Message ID#118 (WARNING):
AMBIGUITY CONVERGENCE Hazard at time 90.1073us
  Device: X_U3.U1
  NODEs: N00873$AtoD (IN1),
         N00834 (IN2) => N00481$DtoA (OUT1)  

DIGITAL Message ID#119 (SERIOUS):
PERSISTENT Hazard at time 90.1073us
  On D/A Node "N00481$DtoA"
  See Message ID#118 for probable cause.

DIGITAL Message ID#120 (SERIOUS):
PERSISTENT Hazard at time 90.1073us
  Device: On D/A interface X$N00481_DtoA1.N1, "N00481$DtoA"
  See Message ID#118 for probable cause.

DIGITAL Message ID#121 (SERIOUS):
PERSISTENT Hazard at time 90.109us
  On D/A Node "N00481$DtoA"
  See Message ID#118 for probable cause.

DIGITAL Message ID#122 (WARNING):
AMBIGUITY CONVERGENCE Hazard at time 95.0011us
  Device: X_U3.U1
  NODEs: N00873$AtoD (IN1),
         N00834 (IN2) => N00481$DtoA (OUT1)  

DIGITAL Message ID#123 (SERIOUS):
PERSISTENT Hazard at time 95.0011us
  On D/A Node "N00481$DtoA"
  See Message ID#122 for probable cause.

DIGITAL Message ID#124 (SERIOUS):
PERSISTENT Hazard at time 95.0011us
  Device: On D/A interface X$N00481_DtoA1.N1, "N00481$DtoA"
  See Message ID#122 for probable cause.

DIGITAL Message ID#125 (WARNING):
AMBIGUITY CONVERGENCE Hazard at time 95.1073us
  Device: X_U3.U1
  NODEs: N00873$AtoD (IN1),
         N00834 (IN2) => N00481$DtoA (OUT1)  

DIGITAL Message ID#126 (SERIOUS):
PERSISTENT Hazard at time 95.1073us
  On D/A Node "N00481$DtoA"
  See Message ID#125 for probable cause.

DIGITAL Message ID#127 (SERIOUS):
PERSISTENT Hazard at time 95.1073us
  Device: On D/A interface X$N00481_DtoA1.N1, "N00481$DtoA"
  See Message ID#125 for probable cause.

DIGITAL Message ID#128 (SERIOUS):
PERSISTENT Hazard at time 95.109us
  On D/A Node "N00481$DtoA"
  See Message ID#125 for probable cause.

DIGITAL Message ID#129 (WARNING):
AMBIGUITY CONVERGENCE Hazard at time 100.0011us
  Device: X_U3.U1
  NODEs: N00873$AtoD (IN1),
         N00834 (IN2) => N00481$DtoA (OUT1)  

DIGITAL Message ID#130 (SERIOUS):
PERSISTENT Hazard at time 100.0011us
  On D/A Node "N00481$DtoA"
  See Message ID#129 for probable cause.

DIGITAL Message ID#131 (SERIOUS):
PERSISTENT Hazard at time 100.0011us
  Device: On D/A interface X$N00481_DtoA1.N1, "N00481$DtoA"
  See Message ID#129 for probable cause.

DIGITAL Message ID#132 (WARNING):
AMBIGUITY CONVERGENCE Hazard at time 100.1073us
  Device: X_U3.U1
  NODEs: N00873$AtoD (IN1),
         N00834 (IN2) => N00481$DtoA (OUT1)  

DIGITAL Message ID#133 (SERIOUS):
PERSISTENT Hazard at time 100.1073us
  On D/A Node "N00481$DtoA"
  See Message ID#132 for probable cause.

DIGITAL Message ID#134 (SERIOUS):
PERSISTENT Hazard at time 100.1073us
  Device: On D/A interface X$N00481_DtoA1.N1, "N00481$DtoA"
  See Message ID#132 for probable cause.

DIGITAL Message ID#135 (SERIOUS):
PERSISTENT Hazard at time 100.109us
  On D/A Node "N00481$DtoA"
  See Message ID#132 for probable cause.

DIGITAL Message ID#136 (WARNING):
AMBIGUITY CONVERGENCE Hazard at time 105.0011us
  Device: X_U3.U1
  NODEs: N00873$AtoD (IN1),
         N00834 (IN2) => N00481$DtoA (OUT1)  

DIGITAL Message ID#137 (SERIOUS):
PERSISTENT Hazard at time 105.0011us
  On D/A Node "N00481$DtoA"
  See Message ID#136 for probable cause.

DIGITAL Message ID#138 (SERIOUS):
PERSISTENT Hazard at time 105.0011us
  Device: On D/A interface X$N00481_DtoA1.N1, "N00481$DtoA"
  See Message ID#136 for probable cause.

DIGITAL Message ID#139 (WARNING):
AMBIGUITY CONVERGENCE Hazard at time 105.1073us
  Device: X_U3.U1
  NODEs: N00873$AtoD (IN1),
         N00834 (IN2) => N00481$DtoA (OUT1)  

DIGITAL Message ID#140 (SERIOUS):
PERSISTENT Hazard at time 105.1073us
  On D/A Node "N00481$DtoA"
  See Message ID#139 for probable cause.

DIGITAL Message ID#141 (SERIOUS):
PERSISTENT Hazard at time 105.1073us
  Device: On D/A interface X$N00481_DtoA1.N1, "N00481$DtoA"
  See Message ID#139 for probable cause.

DIGITAL Message ID#142 (SERIOUS):
PERSISTENT Hazard at time 105.109us
  On D/A Node "N00481$DtoA"
  See Message ID#139 for probable cause.

DIGITAL Message ID#143 (WARNING):
AMBIGUITY CONVERGENCE Hazard at time 110.0011us
  Device: X_U3.U1
  NODEs: N00873$AtoD (IN1),
         N00834 (IN2) => N00481$DtoA (OUT1)  

DIGITAL Message ID#144 (SERIOUS):
PERSISTENT Hazard at time 110.0011us
  On D/A Node "N00481$DtoA"
  See Message ID#143 for probable cause.

DIGITAL Message ID#145 (SERIOUS):
PERSISTENT Hazard at time 110.0011us
  Device: On D/A interface X$N00481_DtoA1.N1, "N00481$DtoA"
  See Message ID#143 for probable cause.

DIGITAL Message ID#146 (WARNING):
AMBIGUITY CONVERGENCE Hazard at time 110.1073us
  Device: X_U3.U1
  NODEs: N00873$AtoD (IN1),
         N00834 (IN2) => N00481$DtoA (OUT1)  

DIGITAL Message ID#147 (SERIOUS):
PERSISTENT Hazard at time 110.1073us
  On D/A Node "N00481$DtoA"
  See Message ID#146 for probable cause.

DIGITAL Message ID#148 (SERIOUS):
PERSISTENT Hazard at time 110.1073us
  Device: On D/A interface X$N00481_DtoA1.N1, "N00481$DtoA"
  See Message ID#146 for probable cause.

DIGITAL Message ID#149 (SERIOUS):
PERSISTENT Hazard at time 110.109us
  On D/A Node "N00481$DtoA"
  See Message ID#146 for probable cause.

DIGITAL Message ID#150 (WARNING):
AMBIGUITY CONVERGENCE Hazard at time 115.0011us
  Device: X_U3.U1
  NODEs: N00873$AtoD (IN1),
         N00834 (IN2) => N00481$DtoA (OUT1)  

DIGITAL Message ID#151 (SERIOUS):
PERSISTENT Hazard at time 115.0011us
  On D/A Node "N00481$DtoA"
  See Message ID#150 for probable cause.

DIGITAL Message ID#152 (SERIOUS):
PERSISTENT Hazard at time 115.0011us
  Device: On D/A interface X$N00481_DtoA1.N1, "N00481$DtoA"
  See Message ID#150 for probable cause.

DIGITAL Message ID#153 (WARNING):
AMBIGUITY CONVERGENCE Hazard at time 115.1073us
  Device: X_U3.U1
  NODEs: N00873$AtoD (IN1),
         N00834 (IN2) => N00481$DtoA (OUT1)  

DIGITAL Message ID#154 (SERIOUS):
PERSISTENT Hazard at time 115.1073us
  On D/A Node "N00481$DtoA"
  See Message ID#153 for probable cause.

DIGITAL Message ID#155 (SERIOUS):
PERSISTENT Hazard at time 115.1073us
  Device: On D/A interface X$N00481_DtoA1.N1, "N00481$DtoA"
  See Message ID#153 for probable cause.

DIGITAL Message ID#156 (SERIOUS):
PERSISTENT Hazard at time 115.109us
  On D/A Node "N00481$DtoA"
  See Message ID#153 for probable cause.

DIGITAL Message ID#157 (WARNING):
AMBIGUITY CONVERGENCE Hazard at time 120.0011us
  Device: X_U3.U1
  NODEs: N00873$AtoD (IN1),
         N00834 (IN2) => N00481$DtoA (OUT1)  

DIGITAL Message ID#158 (SERIOUS):
PERSISTENT Hazard at time 120.0011us
  On D/A Node "N00481$DtoA"
  See Message ID#157 for probable cause.

DIGITAL Message ID#159 (SERIOUS):
PERSISTENT Hazard at time 120.0011us
  Device: On D/A interface X$N00481_DtoA1.N1, "N00481$DtoA"
  See Message ID#157 for probable cause.

DIGITAL Message ID#160 (WARNING):
AMBIGUITY CONVERGENCE Hazard at time 120.1073us
  Device: X_U3.U1
  NODEs: N00873$AtoD (IN1),
         N00834 (IN2) => N00481$DtoA (OUT1)  

DIGITAL Message ID#161 (SERIOUS):
PERSISTENT Hazard at time 120.1073us
  On D/A Node "N00481$DtoA"
  See Message ID#160 for probable cause.

DIGITAL Message ID#162 (SERIOUS):
PERSISTENT Hazard at time 120.1073us
  Device: On D/A interface X$N00481_DtoA1.N1, "N00481$DtoA"
  See Message ID#160 for probable cause.

DIGITAL Message ID#163 (SERIOUS):
PERSISTENT Hazard at time 120.109us
  On D/A Node "N00481$DtoA"
  See Message ID#160 for probable cause.

DIGITAL Message ID#164 (WARNING):
AMBIGUITY CONVERGENCE Hazard at time 125.0011us
  Device: X_U3.U1
  NODEs: N00873$AtoD (IN1),
         N00834 (IN2) => N00481$DtoA (OUT1)  

DIGITAL Message ID#165 (SERIOUS):
PERSISTENT Hazard at time 125.0011us
  On D/A Node "N00481$DtoA"
  See Message ID#164 for probable cause.

DIGITAL Message ID#166 (SERIOUS):
PERSISTENT Hazard at time 125.0011us
  Device: On D/A interface X$N00481_DtoA1.N1, "N00481$DtoA"
  See Message ID#164 for probable cause.

DIGITAL Message ID#167 (WARNING):
AMBIGUITY CONVERGENCE Hazard at time 125.1073us
  Device: X_U3.U1
  NODEs: N00873$AtoD (IN1),
         N00834 (IN2) => N00481$DtoA (OUT1)  

DIGITAL Message ID#168 (SERIOUS):
PERSISTENT Hazard at time 125.1073us
  On D/A Node "N00481$DtoA"
  See Message ID#167 for probable cause.

DIGITAL Message ID#169 (SERIOUS):
PERSISTENT Hazard at time 125.1073us
  Device: On D/A interface X$N00481_DtoA1.N1, "N00481$DtoA"
  See Message ID#167 for probable cause.

DIGITAL Message ID#170 (SERIOUS):
PERSISTENT Hazard at time 125.109us
  On D/A Node "N00481$DtoA"
  See Message ID#167 for probable cause.

DIGITAL Message ID#171 (WARNING):
AMBIGUITY CONVERGENCE Hazard at time 130.0011us
  Device: X_U3.U1
  NODEs: N00873$AtoD (IN1),
         N00834 (IN2) => N00481$DtoA (OUT1)  

DIGITAL Message ID#172 (SERIOUS):
PERSISTENT Hazard at time 130.0011us
  On D/A Node "N00481$DtoA"
  See Message ID#171 for probable cause.

DIGITAL Message ID#173 (SERIOUS):
PERSISTENT Hazard at time 130.0011us
  Device: On D/A interface X$N00481_DtoA1.N1, "N00481$DtoA"
  See Message ID#171 for probable cause.

DIGITAL Message ID#174 (WARNING):
AMBIGUITY CONVERGENCE Hazard at time 130.1073us
  Device: X_U3.U1
  NODEs: N00873$AtoD (IN1),
         N00834 (IN2) => N00481$DtoA (OUT1)  

DIGITAL Message ID#175 (SERIOUS):
PERSISTENT Hazard at time 130.1073us
  On D/A Node "N00481$DtoA"
  See Message ID#174 for probable cause.

DIGITAL Message ID#176 (SERIOUS):
PERSISTENT Hazard at time 130.1073us
  Device: On D/A interface X$N00481_DtoA1.N1, "N00481$DtoA"
  See Message ID#174 for probable cause.

DIGITAL Message ID#177 (SERIOUS):
PERSISTENT Hazard at time 130.109us
  On D/A Node "N00481$DtoA"
  See Message ID#174 for probable cause.

DIGITAL Message ID#178 (WARNING):
AMBIGUITY CONVERGENCE Hazard at time 135.0011us
  Device: X_U3.U1
  NODEs: N00873$AtoD (IN1),
         N00834 (IN2) => N00481$DtoA (OUT1)  

DIGITAL Message ID#179 (SERIOUS):
PERSISTENT Hazard at time 135.0011us
  On D/A Node "N00481$DtoA"
  See Message ID#178 for probable cause.

DIGITAL Message ID#180 (SERIOUS):
PERSISTENT Hazard at time 135.0011us
  Device: On D/A interface X$N00481_DtoA1.N1, "N00481$DtoA"
  See Message ID#178 for probable cause.

DIGITAL Message ID#181 (WARNING):
AMBIGUITY CONVERGENCE Hazard at time 135.1073us
  Device: X_U3.U1
  NODEs: N00873$AtoD (IN1),
         N00834 (IN2) => N00481$DtoA (OUT1)  

DIGITAL Message ID#182 (SERIOUS):
PERSISTENT Hazard at time 135.1073us
  On D/A Node "N00481$DtoA"
  See Message ID#181 for probable cause.

DIGITAL Message ID#183 (SERIOUS):
PERSISTENT Hazard at time 135.1073us
  Device: On D/A interface X$N00481_DtoA1.N1, "N00481$DtoA"
  See Message ID#181 for probable cause.

DIGITAL Message ID#184 (SERIOUS):
PERSISTENT Hazard at time 135.109us
  On D/A Node "N00481$DtoA"
  See Message ID#181 for probable cause.

DIGITAL Message ID#185 (WARNING):
AMBIGUITY CONVERGENCE Hazard at time 140.0011us
  Device: X_U3.U1
  NODEs: N00873$AtoD (IN1),
         N00834 (IN2) => N00481$DtoA (OUT1)  

DIGITAL Message ID#186 (SERIOUS):
PERSISTENT Hazard at time 140.0011us
  On D/A Node "N00481$DtoA"
  See Message ID#185 for probable cause.

DIGITAL Message ID#187 (SERIOUS):
PERSISTENT Hazard at time 140.0011us
  Device: On D/A interface X$N00481_DtoA1.N1, "N00481$DtoA"
  See Message ID#185 for probable cause.

DIGITAL Message ID#188 (WARNING):
AMBIGUITY CONVERGENCE Hazard at time 145.0011us
  Device: X_U3.U1
  NODEs: N00873$AtoD (IN1),
         N00834 (IN2) => N00481$DtoA (OUT1)  

DIGITAL Message ID#189 (SERIOUS):
PERSISTENT Hazard at time 145.0011us
  On D/A Node "N00481$DtoA"
  See Message ID#188 for probable cause.

DIGITAL Message ID#190 (SERIOUS):
PERSISTENT Hazard at time 145.0011us
  Device: On D/A interface X$N00481_DtoA1.N1, "N00481$DtoA"
  See Message ID#188 for probable cause.

DIGITAL Message ID#191 (WARNING):
AMBIGUITY CONVERGENCE Hazard at time 150.0011us
  Device: X_U3.U1
  NODEs: N00873$AtoD (IN1),
         N00834 (IN2) => N00481$DtoA (OUT1)  

DIGITAL Message ID#192 (SERIOUS):
PERSISTENT Hazard at time 150.0011us
  On D/A Node "N00481$DtoA"
  See Message ID#191 for probable cause.

DIGITAL Message ID#193 (SERIOUS):
PERSISTENT Hazard at time 150.0011us
  Device: On D/A interface X$N00481_DtoA1.N1, "N00481$DtoA"
  See Message ID#191 for probable cause.

DIGITAL Message ID#194 (WARNING):
AMBIGUITY CONVERGENCE Hazard at time 155.0011us
  Device: X_U3.U1
  NODEs: N00873$AtoD (IN1),
         N00834 (IN2) => N00481$DtoA (OUT1)  

DIGITAL Message ID#195 (SERIOUS):
PERSISTENT Hazard at time 155.0011us
  On D/A Node "N00481$DtoA"
  See Message ID#194 for probable cause.

DIGITAL Message ID#196 (SERIOUS):
PERSISTENT Hazard at time 155.0011us
  Device: On D/A interface X$N00481_DtoA1.N1, "N00481$DtoA"
  See Message ID#194 for probable cause.

DIGITAL Message ID#197 (WARNING):
AMBIGUITY CONVERGENCE Hazard at time 155.1073us
  Device: X_U3.U1
  NODEs: N00873$AtoD (IN1),
         N00834 (IN2) => N00481$DtoA (OUT1)  

DIGITAL Message ID#198 (SERIOUS):
PERSISTENT Hazard at time 155.1073us
  On D/A Node "N00481$DtoA"
  See Message ID#197 for probable cause.

DIGITAL Message ID#199 (SERIOUS):
PERSISTENT Hazard at time 155.1073us
  Device: On D/A interface X$N00481_DtoA1.N1, "N00481$DtoA"
  See Message ID#197 for probable cause.

DIGITAL Message ID#200 (SERIOUS):
PERSISTENT Hazard at time 155.109us
  On D/A Node "N00481$DtoA"
  See Message ID#197 for probable cause.

DIGITAL Message ID#201 (WARNING):
AMBIGUITY CONVERGENCE Hazard at time 160.0011us
  Device: X_U3.U1
  NODEs: N00873$AtoD (IN1),
         N00834 (IN2) => N00481$DtoA (OUT1)  

DIGITAL Message ID#202 (SERIOUS):
PERSISTENT Hazard at time 160.0011us
  On D/A Node "N00481$DtoA"
  See Message ID#201 for probable cause.

DIGITAL Message ID#203 (SERIOUS):
PERSISTENT Hazard at time 160.0011us
  Device: On D/A interface X$N00481_DtoA1.N1, "N00481$DtoA"
  See Message ID#201 for probable cause.

DIGITAL Message ID#204 (WARNING):
AMBIGUITY CONVERGENCE Hazard at time 160.1073us
  Device: X_U3.U1
  NODEs: N00873$AtoD (IN1),
         N00834 (IN2) => N00481$DtoA (OUT1)  

DIGITAL Message ID#205 (SERIOUS):
PERSISTENT Hazard at time 160.1073us
  On D/A Node "N00481$DtoA"
  See Message ID#204 for probable cause.

DIGITAL Message ID#206 (SERIOUS):
PERSISTENT Hazard at time 160.1073us
  Device: On D/A interface X$N00481_DtoA1.N1, "N00481$DtoA"
  See Message ID#204 for probable cause.

DIGITAL Message ID#207 (SERIOUS):
PERSISTENT Hazard at time 160.109us
  On D/A Node "N00481$DtoA"
  See Message ID#204 for probable cause.

DIGITAL Message ID#208 (WARNING):
AMBIGUITY CONVERGENCE Hazard at time 165.0011us
  Device: X_U3.U1
  NODEs: N00873$AtoD (IN1),
         N00834 (IN2) => N00481$DtoA (OUT1)  

DIGITAL Message ID#209 (SERIOUS):
PERSISTENT Hazard at time 165.0011us
  On D/A Node "N00481$DtoA"
  See Message ID#208 for probable cause.

DIGITAL Message ID#210 (SERIOUS):
PERSISTENT Hazard at time 165.0011us
  Device: On D/A interface X$N00481_DtoA1.N1, "N00481$DtoA"
  See Message ID#208 for probable cause.

DIGITAL Message ID#211 (WARNING):
AMBIGUITY CONVERGENCE Hazard at time 165.1073us
  Device: X_U3.U1
  NODEs: N00873$AtoD (IN1),
         N00834 (IN2) => N00481$DtoA (OUT1)  

DIGITAL Message ID#212 (SERIOUS):
PERSISTENT Hazard at time 165.1073us
  On D/A Node "N00481$DtoA"
  See Message ID#211 for probable cause.

DIGITAL Message ID#213 (SERIOUS):
PERSISTENT Hazard at time 165.1073us
  Device: On D/A interface X$N00481_DtoA1.N1, "N00481$DtoA"
  See Message ID#211 for probable cause.

DIGITAL Message ID#214 (SERIOUS):
PERSISTENT Hazard at time 165.109us
  On D/A Node "N00481$DtoA"
  See Message ID#211 for probable cause.

DIGITAL Message ID#215 (WARNING):
AMBIGUITY CONVERGENCE Hazard at time 170.0011us
  Device: X_U3.U1
  NODEs: N00873$AtoD (IN1),
         N00834 (IN2) => N00481$DtoA (OUT1)  

DIGITAL Message ID#216 (SERIOUS):
PERSISTENT Hazard at time 170.0011us
  On D/A Node "N00481$DtoA"
  See Message ID#215 for probable cause.

DIGITAL Message ID#217 (SERIOUS):
PERSISTENT Hazard at time 170.0011us
  Device: On D/A interface X$N00481_DtoA1.N1, "N00481$DtoA"
  See Message ID#215 for probable cause.

DIGITAL Message ID#218 (WARNING):
AMBIGUITY CONVERGENCE Hazard at time 170.1073us
  Device: X_U3.U1
  NODEs: N00873$AtoD (IN1),
         N00834 (IN2) => N00481$DtoA (OUT1)  

DIGITAL Message ID#219 (SERIOUS):
PERSISTENT Hazard at time 170.1073us
  On D/A Node "N00481$DtoA"
  See Message ID#218 for probable cause.

DIGITAL Message ID#220 (SERIOUS):
PERSISTENT Hazard at time 170.1073us
  Device: On D/A interface X$N00481_DtoA1.N1, "N00481$DtoA"
  See Message ID#218 for probable cause.

DIGITAL Message ID#221 (SERIOUS):
PERSISTENT Hazard at time 170.109us
  On D/A Node "N00481$DtoA"
  See Message ID#218 for probable cause.

DIGITAL Message ID#222 (WARNING):
AMBIGUITY CONVERGENCE Hazard at time 175.0011us
  Device: X_U3.U1
  NODEs: N00873$AtoD (IN1),
         N00834 (IN2) => N00481$DtoA (OUT1)  

DIGITAL Message ID#223 (SERIOUS):
PERSISTENT Hazard at time 175.0011us
  On D/A Node "N00481$DtoA"
  See Message ID#222 for probable cause.

DIGITAL Message ID#224 (SERIOUS):
PERSISTENT Hazard at time 175.0011us
  Device: On D/A interface X$N00481_DtoA1.N1, "N00481$DtoA"
  See Message ID#222 for probable cause.

DIGITAL Message ID#225 (WARNING):
AMBIGUITY CONVERGENCE Hazard at time 175.1073us
  Device: X_U3.U1
  NODEs: N00873$AtoD (IN1),
         N00834 (IN2) => N00481$DtoA (OUT1)  

DIGITAL Message ID#226 (SERIOUS):
PERSISTENT Hazard at time 175.1073us
  On D/A Node "N00481$DtoA"
  See Message ID#225 for probable cause.

DIGITAL Message ID#227 (SERIOUS):
PERSISTENT Hazard at time 175.1073us
  Device: On D/A interface X$N00481_DtoA1.N1, "N00481$DtoA"
  See Message ID#225 for probable cause.

DIGITAL Message ID#228 (SERIOUS):
PERSISTENT Hazard at time 175.109us
  On D/A Node "N00481$DtoA"
  See Message ID#225 for probable cause.

DIGITAL Message ID#229 (WARNING):
AMBIGUITY CONVERGENCE Hazard at time 180.0011us
  Device: X_U3.U1
  NODEs: N00873$AtoD (IN1),
         N00834 (IN2) => N00481$DtoA (OUT1)  

DIGITAL Message ID#230 (SERIOUS):
PERSISTENT Hazard at time 180.0011us
  On D/A Node "N00481$DtoA"
  See Message ID#229 for probable cause.

DIGITAL Message ID#231 (SERIOUS):
PERSISTENT Hazard at time 180.0011us
  Device: On D/A interface X$N00481_DtoA1.N1, "N00481$DtoA"
  See Message ID#229 for probable cause.

DIGITAL Message ID#232 (WARNING):
AMBIGUITY CONVERGENCE Hazard at time 180.1073us
  Device: X_U3.U1
  NODEs: N00873$AtoD (IN1),
         N00834 (IN2) => N00481$DtoA (OUT1)  

DIGITAL Message ID#233 (SERIOUS):
PERSISTENT Hazard at time 180.1073us
  On D/A Node "N00481$DtoA"
  See Message ID#232 for probable cause.

DIGITAL Message ID#234 (SERIOUS):
PERSISTENT Hazard at time 180.1073us
  Device: On D/A interface X$N00481_DtoA1.N1, "N00481$DtoA"
  See Message ID#232 for probable cause.

DIGITAL Message ID#235 (SERIOUS):
PERSISTENT Hazard at time 180.109us
  On D/A Node "N00481$DtoA"
  See Message ID#232 for probable cause.

DIGITAL Message ID#236 (WARNING):
AMBIGUITY CONVERGENCE Hazard at time 185.0011us
  Device: X_U3.U1
  NODEs: N00873$AtoD (IN1),
         N00834 (IN2) => N00481$DtoA (OUT1)  

DIGITAL Message ID#237 (SERIOUS):
PERSISTENT Hazard at time 185.0011us
  On D/A Node "N00481$DtoA"
  See Message ID#236 for probable cause.

DIGITAL Message ID#238 (SERIOUS):
PERSISTENT Hazard at time 185.0011us
  Device: On D/A interface X$N00481_DtoA1.N1, "N00481$DtoA"
  See Message ID#236 for probable cause.

DIGITAL Message ID#239 (WARNING):
AMBIGUITY CONVERGENCE Hazard at time 185.1073us
  Device: X_U3.U1
  NODEs: N00873$AtoD (IN1),
         N00834 (IN2) => N00481$DtoA (OUT1)  

DIGITAL Message ID#240 (SERIOUS):
PERSISTENT Hazard at time 185.1073us
  On D/A Node "N00481$DtoA"
  See Message ID#239 for probable cause.

DIGITAL Message ID#241 (SERIOUS):
PERSISTENT Hazard at time 185.1073us
  Device: On D/A interface X$N00481_DtoA1.N1, "N00481$DtoA"
  See Message ID#239 for probable cause.

DIGITAL Message ID#242 (SERIOUS):
PERSISTENT Hazard at time 185.109us
  On D/A Node "N00481$DtoA"
  See Message ID#239 for probable cause.

DIGITAL Message ID#243 (WARNING):
AMBIGUITY CONVERGENCE Hazard at time 190.0011us
  Device: X_U3.U1
  NODEs: N00873$AtoD (IN1),
         N00834 (IN2) => N00481$DtoA (OUT1)  

DIGITAL Message ID#244 (SERIOUS):
PERSISTENT Hazard at time 190.0011us
  On D/A Node "N00481$DtoA"
  See Message ID#243 for probable cause.

DIGITAL Message ID#245 (SERIOUS):
PERSISTENT Hazard at time 190.0011us
  Device: On D/A interface X$N00481_DtoA1.N1, "N00481$DtoA"
  See Message ID#243 for probable cause.

DIGITAL Message ID#246 (WARNING):
AMBIGUITY CONVERGENCE Hazard at time 190.1073us
  Device: X_U3.U1
  NODEs: N00873$AtoD (IN1),
         N00834 (IN2) => N00481$DtoA (OUT1)  

DIGITAL Message ID#247 (SERIOUS):
PERSISTENT Hazard at time 190.1073us
  On D/A Node "N00481$DtoA"
  See Message ID#246 for probable cause.

DIGITAL Message ID#248 (SERIOUS):
PERSISTENT Hazard at time 190.1073us
  Device: On D/A interface X$N00481_DtoA1.N1, "N00481$DtoA"
  See Message ID#246 for probable cause.

DIGITAL Message ID#249 (SERIOUS):
PERSISTENT Hazard at time 190.109us
  On D/A Node "N00481$DtoA"
  See Message ID#246 for probable cause.

DIGITAL Message ID#250 (WARNING):
AMBIGUITY CONVERGENCE Hazard at time 195.0011us
  Device: X_U3.U1
  NODEs: N00873$AtoD (IN1),
         N00834 (IN2) => N00481$DtoA (OUT1)  

DIGITAL Message ID#251 (SERIOUS):
PERSISTENT Hazard at time 195.0011us
  On D/A Node "N00481$DtoA"
  See Message ID#250 for probable cause.

DIGITAL Message ID#252 (SERIOUS):
PERSISTENT Hazard at time 195.0011us
  Device: On D/A interface X$N00481_DtoA1.N1, "N00481$DtoA"
  See Message ID#250 for probable cause.

DIGITAL Message ID#253 (WARNING):
AMBIGUITY CONVERGENCE Hazard at time 200.0011us
  Device: X_U3.U1
  NODEs: N00873$AtoD (IN1),
         N00834 (IN2) => N00481$DtoA (OUT1)  

DIGITAL Message ID#254 (SERIOUS):
PERSISTENT Hazard at time 200.0011us
  On D/A Node "N00481$DtoA"
  See Message ID#253 for probable cause.

DIGITAL Message ID#255 (SERIOUS):
PERSISTENT Hazard at time 200.0011us
  Device: On D/A interface X$N00481_DtoA1.N1, "N00481$DtoA"
  See Message ID#253 for probable cause.

DIGITAL Message ID#256 (WARNING):
AMBIGUITY CONVERGENCE Hazard at time 205.0011us
  Device: X_U3.U1
  NODEs: N00873$AtoD (IN1),
         N00834 (IN2) => N00481$DtoA (OUT1)  

DIGITAL Message ID#257 (SERIOUS):
PERSISTENT Hazard at time 205.0011us
  On D/A Node "N00481$DtoA"
  See Message ID#256 for probable cause.

DIGITAL Message ID#258 (SERIOUS):
PERSISTENT Hazard at time 205.0011us
  Device: On D/A interface X$N00481_DtoA1.N1, "N00481$DtoA"
  See Message ID#256 for probable cause.

DIGITAL Message ID#259 (WARNING):
AMBIGUITY CONVERGENCE Hazard at time 210.0011us
  Device: X_U3.U1
  NODEs: N00873$AtoD (IN1),
         N00834 (IN2) => N00481$DtoA (OUT1)  

DIGITAL Message ID#260 (SERIOUS):
PERSISTENT Hazard at time 210.0011us
  On D/A Node "N00481$DtoA"
  See Message ID#259 for probable cause.

DIGITAL Message ID#261 (SERIOUS):
PERSISTENT Hazard at time 210.0011us
  Device: On D/A interface X$N00481_DtoA1.N1, "N00481$DtoA"
  See Message ID#259 for probable cause.

DIGITAL Message ID#262 (WARNING):
AMBIGUITY CONVERGENCE Hazard at time 210.1073us
  Device: X_U3.U1
  NODEs: N00873$AtoD (IN1),
         N00834 (IN2) => N00481$DtoA (OUT1)  

DIGITAL Message ID#263 (SERIOUS):
PERSISTENT Hazard at time 210.1073us
  On D/A Node "N00481$DtoA"
  See Message ID#262 for probable cause.

DIGITAL Message ID#264 (SERIOUS):
PERSISTENT Hazard at time 210.1073us
  Device: On D/A interface X$N00481_DtoA1.N1, "N00481$DtoA"
  See Message ID#262 for probable cause.

DIGITAL Message ID#265 (SERIOUS):
PERSISTENT Hazard at time 210.109us
  On D/A Node "N00481$DtoA"
  See Message ID#262 for probable cause.

DIGITAL Message ID#266 (WARNING):
AMBIGUITY CONVERGENCE Hazard at time 215.0011us
  Device: X_U3.U1
  NODEs: N00873$AtoD (IN1),
         N00834 (IN2) => N00481$DtoA (OUT1)  

DIGITAL Message ID#267 (SERIOUS):
PERSISTENT Hazard at time 215.0011us
  On D/A Node "N00481$DtoA"
  See Message ID#266 for probable cause.

DIGITAL Message ID#268 (SERIOUS):
PERSISTENT Hazard at time 215.0011us
  Device: On D/A interface X$N00481_DtoA1.N1, "N00481$DtoA"
  See Message ID#266 for probable cause.

DIGITAL Message ID#269 (WARNING):
AMBIGUITY CONVERGENCE Hazard at time 215.1073us
  Device: X_U3.U1
  NODEs: N00873$AtoD (IN1),
         N00834 (IN2) => N00481$DtoA (OUT1)  

DIGITAL Message ID#270 (SERIOUS):
PERSISTENT Hazard at time 215.1073us
  On D/A Node "N00481$DtoA"
  See Message ID#269 for probable cause.

DIGITAL Message ID#271 (SERIOUS):
PERSISTENT Hazard at time 215.1073us
  Device: On D/A interface X$N00481_DtoA1.N1, "N00481$DtoA"
  See Message ID#269 for probable cause.

DIGITAL Message ID#272 (SERIOUS):
PERSISTENT Hazard at time 215.109us
  On D/A Node "N00481$DtoA"
  See Message ID#269 for probable cause.

DIGITAL Message ID#273 (WARNING):
AMBIGUITY CONVERGENCE Hazard at time 220.0011us
  Device: X_U3.U1
  NODEs: N00873$AtoD (IN1),
         N00834 (IN2) => N00481$DtoA (OUT1)  

DIGITAL Message ID#274 (SERIOUS):
PERSISTENT Hazard at time 220.0011us
  On D/A Node "N00481$DtoA"
  See Message ID#273 for probable cause.

DIGITAL Message ID#275 (SERIOUS):
PERSISTENT Hazard at time 220.0011us
  Device: On D/A interface X$N00481_DtoA1.N1, "N00481$DtoA"
  See Message ID#273 for probable cause.

DIGITAL Message ID#276 (WARNING):
AMBIGUITY CONVERGENCE Hazard at time 220.1073us
  Device: X_U3.U1
  NODEs: N00873$AtoD (IN1),
         N00834 (IN2) => N00481$DtoA (OUT1)  

DIGITAL Message ID#277 (SERIOUS):
PERSISTENT Hazard at time 220.1073us
  On D/A Node "N00481$DtoA"
  See Message ID#276 for probable cause.

DIGITAL Message ID#278 (SERIOUS):
PERSISTENT Hazard at time 220.1073us
  Device: On D/A interface X$N00481_DtoA1.N1, "N00481$DtoA"
  See Message ID#276 for probable cause.

DIGITAL Message ID#279 (SERIOUS):
PERSISTENT Hazard at time 220.109us
  On D/A Node "N00481$DtoA"
  See Message ID#276 for probable cause.

DIGITAL Message ID#280 (WARNING):
AMBIGUITY CONVERGENCE Hazard at time 225.0011us
  Device: X_U3.U1
  NODEs: N00873$AtoD (IN1),
         N00834 (IN2) => N00481$DtoA (OUT1)  

DIGITAL Message ID#281 (SERIOUS):
PERSISTENT Hazard at time 225.0011us
  On D/A Node "N00481$DtoA"
  See Message ID#280 for probable cause.

DIGITAL Message ID#282 (SERIOUS):
PERSISTENT Hazard at time 225.0011us
  Device: On D/A interface X$N00481_DtoA1.N1, "N00481$DtoA"
  See Message ID#280 for probable cause.

DIGITAL Message ID#283 (WARNING):
AMBIGUITY CONVERGENCE Hazard at time 225.1073us
  Device: X_U3.U1
  NODEs: N00873$AtoD (IN1),
         N00834 (IN2) => N00481$DtoA (OUT1)  

DIGITAL Message ID#284 (SERIOUS):
PERSISTENT Hazard at time 225.1073us
  On D/A Node "N00481$DtoA"
  See Message ID#283 for probable cause.

DIGITAL Message ID#285 (SERIOUS):
PERSISTENT Hazard at time 225.1073us
  Device: On D/A interface X$N00481_DtoA1.N1, "N00481$DtoA"
  See Message ID#283 for probable cause.

DIGITAL Message ID#286 (SERIOUS):
PERSISTENT Hazard at time 225.109us
  On D/A Node "N00481$DtoA"
  See Message ID#283 for probable cause.

DIGITAL Message ID#287 (WARNING):
AMBIGUITY CONVERGENCE Hazard at time 230.0011us
  Device: X_U3.U1
  NODEs: N00873$AtoD (IN1),
         N00834 (IN2) => N00481$DtoA (OUT1)  

DIGITAL Message ID#288 (SERIOUS):
PERSISTENT Hazard at time 230.0011us
  On D/A Node "N00481$DtoA"
  See Message ID#287 for probable cause.

DIGITAL Message ID#289 (SERIOUS):
PERSISTENT Hazard at time 230.0011us
  Device: On D/A interface X$N00481_DtoA1.N1, "N00481$DtoA"
  See Message ID#287 for probable cause.

DIGITAL Message ID#290 (WARNING):
AMBIGUITY CONVERGENCE Hazard at time 230.1073us
  Device: X_U3.U1
  NODEs: N00873$AtoD (IN1),
         N00834 (IN2) => N00481$DtoA (OUT1)  

DIGITAL Message ID#291 (SERIOUS):
PERSISTENT Hazard at time 230.1073us
  On D/A Node "N00481$DtoA"
  See Message ID#290 for probable cause.

DIGITAL Message ID#292 (SERIOUS):
PERSISTENT Hazard at time 230.1073us
  Device: On D/A interface X$N00481_DtoA1.N1, "N00481$DtoA"
  See Message ID#290 for probable cause.

DIGITAL Message ID#293 (SERIOUS):
PERSISTENT Hazard at time 230.109us
  On D/A Node "N00481$DtoA"
  See Message ID#290 for probable cause.

DIGITAL Message ID#294 (WARNING):
AMBIGUITY CONVERGENCE Hazard at time 235.0011us
  Device: X_U3.U1
  NODEs: N00873$AtoD (IN1),
         N00834 (IN2) => N00481$DtoA (OUT1)  

DIGITAL Message ID#295 (SERIOUS):
PERSISTENT Hazard at time 235.0011us
  On D/A Node "N00481$DtoA"
  See Message ID#294 for probable cause.

DIGITAL Message ID#296 (SERIOUS):
PERSISTENT Hazard at time 235.0011us
  Device: On D/A interface X$N00481_DtoA1.N1, "N00481$DtoA"
  See Message ID#294 for probable cause.

DIGITAL Message ID#297 (WARNING):
AMBIGUITY CONVERGENCE Hazard at time 235.1073us
  Device: X_U3.U1
  NODEs: N00873$AtoD (IN1),
         N00834 (IN2) => N00481$DtoA (OUT1)  

DIGITAL Message ID#298 (SERIOUS):
PERSISTENT Hazard at time 235.1073us
  On D/A Node "N00481$DtoA"
  See Message ID#297 for probable cause.

DIGITAL Message ID#299 (SERIOUS):
PERSISTENT Hazard at time 235.1073us
  Device: On D/A interface X$N00481_DtoA1.N1, "N00481$DtoA"
  See Message ID#297 for probable cause.

DIGITAL Message ID#300 (SERIOUS):
PERSISTENT Hazard at time 235.109us
  On D/A Node "N00481$DtoA"
  See Message ID#297 for probable cause.

DIGITAL Message ID#301 (WARNING):
AMBIGUITY CONVERGENCE Hazard at time 240.0011us
  Device: X_U3.U1
  NODEs: N00873$AtoD (IN1),
         N00834 (IN2) => N00481$DtoA (OUT1)  

DIGITAL Message ID#302 (SERIOUS):
PERSISTENT Hazard at time 240.0011us
  On D/A Node "N00481$DtoA"
  See Message ID#301 for probable cause.

DIGITAL Message ID#303 (SERIOUS):
PERSISTENT Hazard at time 240.0011us
  Device: On D/A interface X$N00481_DtoA1.N1, "N00481$DtoA"
  See Message ID#301 for probable cause.

DIGITAL Message ID#304 (WARNING):
AMBIGUITY CONVERGENCE Hazard at time 240.1073us
  Device: X_U3.U1
  NODEs: N00873$AtoD (IN1),
         N00834 (IN2) => N00481$DtoA (OUT1)  

DIGITAL Message ID#305 (SERIOUS):
PERSISTENT Hazard at time 240.1073us
  On D/A Node "N00481$DtoA"
  See Message ID#304 for probable cause.

DIGITAL Message ID#306 (SERIOUS):
PERSISTENT Hazard at time 240.1073us
  Device: On D/A interface X$N00481_DtoA1.N1, "N00481$DtoA"
  See Message ID#304 for probable cause.

DIGITAL Message ID#307 (SERIOUS):
PERSISTENT Hazard at time 240.109us
  On D/A Node "N00481$DtoA"
  See Message ID#304 for probable cause.

DIGITAL Message ID#308 (WARNING):
AMBIGUITY CONVERGENCE Hazard at time 245.0011us
  Device: X_U3.U1
  NODEs: N00873$AtoD (IN1),
         N00834 (IN2) => N00481$DtoA (OUT1)  

DIGITAL Message ID#309 (SERIOUS):
PERSISTENT Hazard at time 245.0011us
  On D/A Node "N00481$DtoA"
  See Message ID#308 for probable cause.

DIGITAL Message ID#310 (SERIOUS):
PERSISTENT Hazard at time 245.0011us
  Device: On D/A interface X$N00481_DtoA1.N1, "N00481$DtoA"
  See Message ID#308 for probable cause.

DIGITAL Message ID#311 (WARNING):
AMBIGUITY CONVERGENCE Hazard at time 250.0011us
  Device: X_U3.U1
  NODEs: N00873$AtoD (IN1),
         N00834 (IN2) => N00481$DtoA (OUT1)  

DIGITAL Message ID#312 (SERIOUS):
PERSISTENT Hazard at time 250.0011us
  On D/A Node "N00481$DtoA"
  See Message ID#311 for probable cause.

DIGITAL Message ID#313 (SERIOUS):
PERSISTENT Hazard at time 250.0011us
  Device: On D/A interface X$N00481_DtoA1.N1, "N00481$DtoA"
  See Message ID#311 for probable cause.

DIGITAL Message ID#314 (WARNING):
AMBIGUITY CONVERGENCE Hazard at time 255.0011us
  Device: X_U3.U1
  NODEs: N00873$AtoD (IN1),
         N00834 (IN2) => N00481$DtoA (OUT1)  

DIGITAL Message ID#315 (SERIOUS):
PERSISTENT Hazard at time 255.0011us
  On D/A Node "N00481$DtoA"
  See Message ID#314 for probable cause.

DIGITAL Message ID#316 (SERIOUS):
PERSISTENT Hazard at time 255.0011us
  Device: On D/A interface X$N00481_DtoA1.N1, "N00481$DtoA"
  See Message ID#314 for probable cause.

DIGITAL Message ID#317 (WARNING):
AMBIGUITY CONVERGENCE Hazard at time 260.0011us
  Device: X_U3.U1
  NODEs: N00873$AtoD (IN1),
         N00834 (IN2) => N00481$DtoA (OUT1)  

DIGITAL Message ID#318 (SERIOUS):
PERSISTENT Hazard at time 260.0011us
  On D/A Node "N00481$DtoA"
  See Message ID#317 for probable cause.

DIGITAL Message ID#319 (SERIOUS):
PERSISTENT Hazard at time 260.0011us
  Device: On D/A interface X$N00481_DtoA1.N1, "N00481$DtoA"
  See Message ID#317 for probable cause.

DIGITAL Message ID#320 (WARNING):
AMBIGUITY CONVERGENCE Hazard at time 265.0011us
  Device: X_U3.U1
  NODEs: N00873$AtoD (IN1),
         N00834 (IN2) => N00481$DtoA (OUT1)  

DIGITAL Message ID#321 (SERIOUS):
PERSISTENT Hazard at time 265.0011us
  On D/A Node "N00481$DtoA"
  See Message ID#320 for probable cause.

DIGITAL Message ID#322 (SERIOUS):
PERSISTENT Hazard at time 265.0011us
  Device: On D/A interface X$N00481_DtoA1.N1, "N00481$DtoA"
  See Message ID#320 for probable cause.

DIGITAL Message ID#323 (WARNING):
AMBIGUITY CONVERGENCE Hazard at time 265.1073us
  Device: X_U3.U1
  NODEs: N00873$AtoD (IN1),
         N00834 (IN2) => N00481$DtoA (OUT1)  

DIGITAL Message ID#324 (SERIOUS):
PERSISTENT Hazard at time 265.1073us
  On D/A Node "N00481$DtoA"
  See Message ID#323 for probable cause.

DIGITAL Message ID#325 (SERIOUS):
PERSISTENT Hazard at time 265.1073us
  Device: On D/A interface X$N00481_DtoA1.N1, "N00481$DtoA"
  See Message ID#323 for probable cause.

DIGITAL Message ID#326 (SERIOUS):
PERSISTENT Hazard at time 265.109us
  On D/A Node "N00481$DtoA"
  See Message ID#323 for probable cause.

DIGITAL Message ID#327 (WARNING):
AMBIGUITY CONVERGENCE Hazard at time 270.0011us
  Device: X_U3.U1
  NODEs: N00873$AtoD (IN1),
         N00834 (IN2) => N00481$DtoA (OUT1)  

DIGITAL Message ID#328 (SERIOUS):
PERSISTENT Hazard at time 270.0011us
  On D/A Node "N00481$DtoA"
  See Message ID#327 for probable cause.

DIGITAL Message ID#329 (SERIOUS):
PERSISTENT Hazard at time 270.0011us
  Device: On D/A interface X$N00481_DtoA1.N1, "N00481$DtoA"
  See Message ID#327 for probable cause.

DIGITAL Message ID#330 (WARNING):
AMBIGUITY CONVERGENCE Hazard at time 270.1073us
  Device: X_U3.U1
  NODEs: N00873$AtoD (IN1),
         N00834 (IN2) => N00481$DtoA (OUT1)  

DIGITAL Message ID#331 (SERIOUS):
PERSISTENT Hazard at time 270.1073us
  On D/A Node "N00481$DtoA"
  See Message ID#330 for probable cause.

DIGITAL Message ID#332 (SERIOUS):
PERSISTENT Hazard at time 270.1073us
  Device: On D/A interface X$N00481_DtoA1.N1, "N00481$DtoA"
  See Message ID#330 for probable cause.

DIGITAL Message ID#333 (SERIOUS):
PERSISTENT Hazard at time 270.109us
  On D/A Node "N00481$DtoA"
  See Message ID#330 for probable cause.

DIGITAL Message ID#334 (WARNING):
AMBIGUITY CONVERGENCE Hazard at time 275.0011us
  Device: X_U3.U1
  NODEs: N00873$AtoD (IN1),
         N00834 (IN2) => N00481$DtoA (OUT1)  

DIGITAL Message ID#335 (SERIOUS):
PERSISTENT Hazard at time 275.0011us
  On D/A Node "N00481$DtoA"
  See Message ID#334 for probable cause.

DIGITAL Message ID#336 (SERIOUS):
PERSISTENT Hazard at time 275.0011us
  Device: On D/A interface X$N00481_DtoA1.N1, "N00481$DtoA"
  See Message ID#334 for probable cause.

DIGITAL Message ID#337 (WARNING):
AMBIGUITY CONVERGENCE Hazard at time 275.1073us
  Device: X_U3.U1
  NODEs: N00873$AtoD (IN1),
         N00834 (IN2) => N00481$DtoA (OUT1)  

DIGITAL Message ID#338 (SERIOUS):
PERSISTENT Hazard at time 275.1073us
  On D/A Node "N00481$DtoA"
  See Message ID#337 for probable cause.

DIGITAL Message ID#339 (SERIOUS):
PERSISTENT Hazard at time 275.1073us
  Device: On D/A interface X$N00481_DtoA1.N1, "N00481$DtoA"
  See Message ID#337 for probable cause.

DIGITAL Message ID#340 (SERIOUS):
PERSISTENT Hazard at time 275.109us
  On D/A Node "N00481$DtoA"
  See Message ID#337 for probable cause.

DIGITAL Message ID#341 (WARNING):
AMBIGUITY CONVERGENCE Hazard at time 280.0011us
  Device: X_U3.U1
  NODEs: N00873$AtoD (IN1),
         N00834 (IN2) => N00481$DtoA (OUT1)  

DIGITAL Message ID#342 (SERIOUS):
PERSISTENT Hazard at time 280.0011us
  On D/A Node "N00481$DtoA"
  See Message ID#341 for probable cause.

DIGITAL Message ID#343 (SERIOUS):
PERSISTENT Hazard at time 280.0011us
  Device: On D/A interface X$N00481_DtoA1.N1, "N00481$DtoA"
  See Message ID#341 for probable cause.

DIGITAL Message ID#344 (WARNING):
AMBIGUITY CONVERGENCE Hazard at time 280.1073us
  Device: X_U3.U1
  NODEs: N00873$AtoD (IN1),
         N00834 (IN2) => N00481$DtoA (OUT1)  

DIGITAL Message ID#345 (SERIOUS):
PERSISTENT Hazard at time 280.1073us
  On D/A Node "N00481$DtoA"
  See Message ID#344 for probable cause.

DIGITAL Message ID#346 (SERIOUS):
PERSISTENT Hazard at time 280.1073us
  Device: On D/A interface X$N00481_DtoA1.N1, "N00481$DtoA"
  See Message ID#344 for probable cause.

DIGITAL Message ID#347 (SERIOUS):
PERSISTENT Hazard at time 280.109us
  On D/A Node "N00481$DtoA"
  See Message ID#344 for probable cause.

DIGITAL Message ID#348 (WARNING):
AMBIGUITY CONVERGENCE Hazard at time 285.0011us
  Device: X_U3.U1
  NODEs: N00873$AtoD (IN1),
         N00834 (IN2) => N00481$DtoA (OUT1)  

DIGITAL Message ID#349 (SERIOUS):
PERSISTENT Hazard at time 285.0011us
  On D/A Node "N00481$DtoA"
  See Message ID#348 for probable cause.

DIGITAL Message ID#350 (SERIOUS):
PERSISTENT Hazard at time 285.0011us
  Device: On D/A interface X$N00481_DtoA1.N1, "N00481$DtoA"
  See Message ID#348 for probable cause.

DIGITAL Message ID#351 (WARNING):
AMBIGUITY CONVERGENCE Hazard at time 285.1073us
  Device: X_U3.U1
  NODEs: N00873$AtoD (IN1),
         N00834 (IN2) => N00481$DtoA (OUT1)  

DIGITAL Message ID#352 (SERIOUS):
PERSISTENT Hazard at time 285.1073us
  On D/A Node "N00481$DtoA"
  See Message ID#351 for probable cause.

DIGITAL Message ID#353 (SERIOUS):
PERSISTENT Hazard at time 285.1073us
  Device: On D/A interface X$N00481_DtoA1.N1, "N00481$DtoA"
  See Message ID#351 for probable cause.

DIGITAL Message ID#354 (SERIOUS):
PERSISTENT Hazard at time 285.109us
  On D/A Node "N00481$DtoA"
  See Message ID#351 for probable cause.

DIGITAL Message ID#355 (WARNING):
AMBIGUITY CONVERGENCE Hazard at time 290.0011us
  Device: X_U3.U1
  NODEs: N00873$AtoD (IN1),
         N00834 (IN2) => N00481$DtoA (OUT1)  

DIGITAL Message ID#356 (SERIOUS):
PERSISTENT Hazard at time 290.0011us
  On D/A Node "N00481$DtoA"
  See Message ID#355 for probable cause.

DIGITAL Message ID#357 (SERIOUS):
PERSISTENT Hazard at time 290.0011us
  Device: On D/A interface X$N00481_DtoA1.N1, "N00481$DtoA"
  See Message ID#355 for probable cause.

DIGITAL Message ID#358 (WARNING):
AMBIGUITY CONVERGENCE Hazard at time 290.1073us
  Device: X_U3.U1
  NODEs: N00873$AtoD (IN1),
         N00834 (IN2) => N00481$DtoA (OUT1)  

DIGITAL Message ID#359 (SERIOUS):
PERSISTENT Hazard at time 290.1073us
  On D/A Node "N00481$DtoA"
  See Message ID#358 for probable cause.

DIGITAL Message ID#360 (SERIOUS):
PERSISTENT Hazard at time 290.1073us
  Device: On D/A interface X$N00481_DtoA1.N1, "N00481$DtoA"
  See Message ID#358 for probable cause.

DIGITAL Message ID#361 (SERIOUS):
PERSISTENT Hazard at time 290.109us
  On D/A Node "N00481$DtoA"
  See Message ID#358 for probable cause.

DIGITAL Message ID#362 (WARNING):
AMBIGUITY CONVERGENCE Hazard at time 295.0011us
  Device: X_U3.U1
  NODEs: N00873$AtoD (IN1),
         N00834 (IN2) => N00481$DtoA (OUT1)  

DIGITAL Message ID#363 (SERIOUS):
PERSISTENT Hazard at time 295.0011us
  On D/A Node "N00481$DtoA"
  See Message ID#362 for probable cause.

DIGITAL Message ID#364 (SERIOUS):
PERSISTENT Hazard at time 295.0011us
  Device: On D/A interface X$N00481_DtoA1.N1, "N00481$DtoA"
  See Message ID#362 for probable cause.

DIGITAL Message ID#365 (WARNING):
AMBIGUITY CONVERGENCE Hazard at time 300.0011us
  Device: X_U3.U1
  NODEs: N00873$AtoD (IN1),
         N00834 (IN2) => N00481$DtoA (OUT1)  

DIGITAL Message ID#366 (SERIOUS):
PERSISTENT Hazard at time 300.0011us
  On D/A Node "N00481$DtoA"
  See Message ID#365 for probable cause.

DIGITAL Message ID#367 (SERIOUS):
PERSISTENT Hazard at time 300.0011us
  Device: On D/A interface X$N00481_DtoA1.N1, "N00481$DtoA"
  See Message ID#365 for probable cause.

DIGITAL Message ID#368 (WARNING):
AMBIGUITY CONVERGENCE Hazard at time 305.0011us
  Device: X_U3.U1
  NODEs: N00873$AtoD (IN1),
         N00834 (IN2) => N00481$DtoA (OUT1)  

DIGITAL Message ID#369 (SERIOUS):
PERSISTENT Hazard at time 305.0011us
  On D/A Node "N00481$DtoA"
  See Message ID#368 for probable cause.

DIGITAL Message ID#370 (SERIOUS):
PERSISTENT Hazard at time 305.0011us
  Device: On D/A interface X$N00481_DtoA1.N1, "N00481$DtoA"
  See Message ID#368 for probable cause.

DIGITAL Message ID#371 (WARNING):
AMBIGUITY CONVERGENCE Hazard at time 310.0011us
  Device: X_U3.U1
  NODEs: N00873$AtoD (IN1),
         N00834 (IN2) => N00481$DtoA (OUT1)  

DIGITAL Message ID#372 (SERIOUS):
PERSISTENT Hazard at time 310.0011us
  On D/A Node "N00481$DtoA"
  See Message ID#371 for probable cause.

DIGITAL Message ID#373 (SERIOUS):
PERSISTENT Hazard at time 310.0011us
  Device: On D/A interface X$N00481_DtoA1.N1, "N00481$DtoA"
  See Message ID#371 for probable cause.

DIGITAL Message ID#374 (WARNING):
AMBIGUITY CONVERGENCE Hazard at time 315.0011us
  Device: X_U3.U1
  NODEs: N00873$AtoD (IN1),
         N00834 (IN2) => N00481$DtoA (OUT1)  

DIGITAL Message ID#375 (SERIOUS):
PERSISTENT Hazard at time 315.0011us
  On D/A Node "N00481$DtoA"
  See Message ID#374 for probable cause.

DIGITAL Message ID#376 (SERIOUS):
PERSISTENT Hazard at time 315.0011us
  Device: On D/A interface X$N00481_DtoA1.N1, "N00481$DtoA"
  See Message ID#374 for probable cause.

DIGITAL Message ID#377 (WARNING):
AMBIGUITY CONVERGENCE Hazard at time 315.1073us
  Device: X_U3.U1
  NODEs: N00873$AtoD (IN1),
         N00834 (IN2) => N00481$DtoA (OUT1)  

DIGITAL Message ID#378 (SERIOUS):
PERSISTENT Hazard at time 315.1073us
  On D/A Node "N00481$DtoA"
  See Message ID#377 for probable cause.

DIGITAL Message ID#379 (SERIOUS):
PERSISTENT Hazard at time 315.1073us
  Device: On D/A interface X$N00481_DtoA1.N1, "N00481$DtoA"
  See Message ID#377 for probable cause.

DIGITAL Message ID#380 (SERIOUS):
PERSISTENT Hazard at time 315.109us
  On D/A Node "N00481$DtoA"
  See Message ID#377 for probable cause.

DIGITAL Message ID#381 (WARNING):
AMBIGUITY CONVERGENCE Hazard at time 320.0011us
  Device: X_U3.U1
  NODEs: N00873$AtoD (IN1),
         N00834 (IN2) => N00481$DtoA (OUT1)  

DIGITAL Message ID#382 (SERIOUS):
PERSISTENT Hazard at time 320.0011us
  On D/A Node "N00481$DtoA"
  See Message ID#381 for probable cause.

DIGITAL Message ID#383 (SERIOUS):
PERSISTENT Hazard at time 320.0011us
  Device: On D/A interface X$N00481_DtoA1.N1, "N00481$DtoA"
  See Message ID#381 for probable cause.

DIGITAL Message ID#384 (WARNING):
AMBIGUITY CONVERGENCE Hazard at time 320.1073us
  Device: X_U3.U1
  NODEs: N00873$AtoD (IN1),
         N00834 (IN2) => N00481$DtoA (OUT1)  

DIGITAL Message ID#385 (SERIOUS):
PERSISTENT Hazard at time 320.1073us
  On D/A Node "N00481$DtoA"
  See Message ID#384 for probable cause.

DIGITAL Message ID#386 (SERIOUS):
PERSISTENT Hazard at time 320.1073us
  Device: On D/A interface X$N00481_DtoA1.N1, "N00481$DtoA"
  See Message ID#384 for probable cause.

DIGITAL Message ID#387 (SERIOUS):
PERSISTENT Hazard at time 320.109us
  On D/A Node "N00481$DtoA"
  See Message ID#384 for probable cause.

DIGITAL Message ID#388 (WARNING):
AMBIGUITY CONVERGENCE Hazard at time 325.0011us
  Device: X_U3.U1
  NODEs: N00873$AtoD (IN1),
         N00834 (IN2) => N00481$DtoA (OUT1)  

DIGITAL Message ID#389 (SERIOUS):
PERSISTENT Hazard at time 325.0011us
  On D/A Node "N00481$DtoA"
  See Message ID#388 for probable cause.

DIGITAL Message ID#390 (SERIOUS):
PERSISTENT Hazard at time 325.0011us
  Device: On D/A interface X$N00481_DtoA1.N1, "N00481$DtoA"
  See Message ID#388 for probable cause.

DIGITAL Message ID#391 (WARNING):
AMBIGUITY CONVERGENCE Hazard at time 325.1073us
  Device: X_U3.U1
  NODEs: N00873$AtoD (IN1),
         N00834 (IN2) => N00481$DtoA (OUT1)  

DIGITAL Message ID#392 (SERIOUS):
PERSISTENT Hazard at time 325.1073us
  On D/A Node "N00481$DtoA"
  See Message ID#391 for probable cause.

DIGITAL Message ID#393 (SERIOUS):
PERSISTENT Hazard at time 325.1073us
  Device: On D/A interface X$N00481_DtoA1.N1, "N00481$DtoA"
  See Message ID#391 for probable cause.

DIGITAL Message ID#394 (SERIOUS):
PERSISTENT Hazard at time 325.109us
  On D/A Node "N00481$DtoA"
  See Message ID#391 for probable cause.

DIGITAL Message ID#395 (WARNING):
AMBIGUITY CONVERGENCE Hazard at time 330.0011us
  Device: X_U3.U1
  NODEs: N00873$AtoD (IN1),
         N00834 (IN2) => N00481$DtoA (OUT1)  

DIGITAL Message ID#396 (SERIOUS):
PERSISTENT Hazard at time 330.0011us
  On D/A Node "N00481$DtoA"
  See Message ID#395 for probable cause.

DIGITAL Message ID#397 (SERIOUS):
PERSISTENT Hazard at time 330.0011us
  Device: On D/A interface X$N00481_DtoA1.N1, "N00481$DtoA"
  See Message ID#395 for probable cause.

DIGITAL Message ID#398 (WARNING):
AMBIGUITY CONVERGENCE Hazard at time 330.1073us
  Device: X_U3.U1
  NODEs: N00873$AtoD (IN1),
         N00834 (IN2) => N00481$DtoA (OUT1)  

DIGITAL Message ID#399 (SERIOUS):
PERSISTENT Hazard at time 330.1073us
  On D/A Node "N00481$DtoA"
  See Message ID#398 for probable cause.

DIGITAL Message ID#400 (SERIOUS):
PERSISTENT Hazard at time 330.1073us
  Device: On D/A interface X$N00481_DtoA1.N1, "N00481$DtoA"
  See Message ID#398 for probable cause.

DIGITAL Message ID#401 (SERIOUS):
PERSISTENT Hazard at time 330.109us
  On D/A Node "N00481$DtoA"
  See Message ID#398 for probable cause.

DIGITAL Message ID#402 (WARNING):
AMBIGUITY CONVERGENCE Hazard at time 335.0011us
  Device: X_U3.U1
  NODEs: N00873$AtoD (IN1),
         N00834 (IN2) => N00481$DtoA (OUT1)  

DIGITAL Message ID#403 (SERIOUS):
PERSISTENT Hazard at time 335.0011us
  On D/A Node "N00481$DtoA"
  See Message ID#402 for probable cause.

DIGITAL Message ID#404 (SERIOUS):
PERSISTENT Hazard at time 335.0011us
  Device: On D/A interface X$N00481_DtoA1.N1, "N00481$DtoA"
  See Message ID#402 for probable cause.

DIGITAL Message ID#405 (WARNING):
AMBIGUITY CONVERGENCE Hazard at time 335.1073us
  Device: X_U3.U1
  NODEs: N00873$AtoD (IN1),
         N00834 (IN2) => N00481$DtoA (OUT1)  

DIGITAL Message ID#406 (SERIOUS):
PERSISTENT Hazard at time 335.1073us
  On D/A Node "N00481$DtoA"
  See Message ID#405 for probable cause.

DIGITAL Message ID#407 (SERIOUS):
PERSISTENT Hazard at time 335.1073us
  Device: On D/A interface X$N00481_DtoA1.N1, "N00481$DtoA"
  See Message ID#405 for probable cause.

DIGITAL Message ID#408 (SERIOUS):
PERSISTENT Hazard at time 335.109us
  On D/A Node "N00481$DtoA"
  See Message ID#405 for probable cause.

DIGITAL Message ID#409 (WARNING):
AMBIGUITY CONVERGENCE Hazard at time 340.0011us
  Device: X_U3.U1
  NODEs: N00873$AtoD (IN1),
         N00834 (IN2) => N00481$DtoA (OUT1)  

DIGITAL Message ID#410 (SERIOUS):
PERSISTENT Hazard at time 340.0011us
  On D/A Node "N00481$DtoA"
  See Message ID#409 for probable cause.

DIGITAL Message ID#411 (SERIOUS):
PERSISTENT Hazard at time 340.0011us
  Device: On D/A interface X$N00481_DtoA1.N1, "N00481$DtoA"
  See Message ID#409 for probable cause.

DIGITAL Message ID#412 (WARNING):
AMBIGUITY CONVERGENCE Hazard at time 340.1073us
  Device: X_U3.U1
  NODEs: N00873$AtoD (IN1),
         N00834 (IN2) => N00481$DtoA (OUT1)  

DIGITAL Message ID#413 (SERIOUS):
PERSISTENT Hazard at time 340.1073us
  On D/A Node "N00481$DtoA"
  See Message ID#412 for probable cause.

DIGITAL Message ID#414 (SERIOUS):
PERSISTENT Hazard at time 340.1073us
  Device: On D/A interface X$N00481_DtoA1.N1, "N00481$DtoA"
  See Message ID#412 for probable cause.

DIGITAL Message ID#415 (SERIOUS):
PERSISTENT Hazard at time 340.109us
  On D/A Node "N00481$DtoA"
  See Message ID#412 for probable cause.

DIGITAL Message ID#416 (WARNING):
AMBIGUITY CONVERGENCE Hazard at time 345.0011us
  Device: X_U3.U1
  NODEs: N00873$AtoD (IN1),
[...]
  Device: X_U3.U1
  NODEs: N00873$AtoD (IN1),
         N00834 (IN2) => N00481$DtoA (OUT1)  

DIGITAL Message ID#188 (SERIOUS):
PERSISTENT Hazard at time 1.3000011ms
  On D/A Node "N00481$DtoA"
  See Message ID#187 for probable cause.

DIGITAL Message ID#189 (SERIOUS):
PERSISTENT Hazard at time 1.3000011ms
  Device: On D/A interface X$N00481_DtoA1.N1, "N00481$DtoA"
  See Message ID#187 for probable cause.

DIGITAL Message ID#190 (WARNING):
AMBIGUITY CONVERGENCE Hazard at time 1.3050011ms
  Device: X_U3.U1
  NODEs: N00873$AtoD (IN1),
         N00834 (IN2) => N00481$DtoA (OUT1)  

DIGITAL Message ID#191 (SERIOUS):
PERSISTENT Hazard at time 1.3050011ms
  On D/A Node "N00481$DtoA"
  See Message ID#190 for probable cause.

DIGITAL Message ID#192 (SERIOUS):
PERSISTENT Hazard at time 1.3050011ms
  Device: On D/A interface X$N00481_DtoA1.N1, "N00481$DtoA"
  See Message ID#190 for probable cause.

DIGITAL Message ID#193 (WARNING):
AMBIGUITY CONVERGENCE Hazard at time 1.3100011ms
  Device: X_U3.U1
  NODEs: N00873$AtoD (IN1),
         N00834 (IN2) => N00481$DtoA (OUT1)  

DIGITAL Message ID#194 (SERIOUS):
PERSISTENT Hazard at time 1.3100011ms
  On D/A Node "N00481$DtoA"
  See Message ID#193 for probable cause.

DIGITAL Message ID#195 (SERIOUS):
PERSISTENT Hazard at time 1.3100011ms
  Device: On D/A interface X$N00481_DtoA1.N1, "N00481$DtoA"
  See Message ID#193 for probable cause.

DIGITAL Message ID#196 (WARNING):
AMBIGUITY CONVERGENCE Hazard at time 1.3150011ms
  Device: X_U3.U1
  NODEs: N00873$AtoD (IN1),
         N00834 (IN2) => N00481$DtoA (OUT1)  

DIGITAL Message ID#197 (SERIOUS):
PERSISTENT Hazard at time 1.3150011ms
  On D/A Node "N00481$DtoA"
  See Message ID#196 for probable cause.

DIGITAL Message ID#198 (SERIOUS):
PERSISTENT Hazard at time 1.3150011ms
  Device: On D/A interface X$N00481_DtoA1.N1, "N00481$DtoA"
  See Message ID#196 for probable cause.

DIGITAL Message ID#199 (WARNING):
AMBIGUITY CONVERGENCE Hazard at time 1.3200011ms
  Device: X_U3.U1
  NODEs: N00873$AtoD (IN1),
         N00834 (IN2) => N00481$DtoA (OUT1)  

DIGITAL Message ID#200 (SERIOUS):
PERSISTENT Hazard at time 1.3200011ms
  On D/A Node "N00481$DtoA"
  See Message ID#199 for probable cause.

DIGITAL Message ID#201 (SERIOUS):
PERSISTENT Hazard at time 1.3200011ms
  Device: On D/A interface X$N00481_DtoA1.N1, "N00481$DtoA"
  See Message ID#199 for probable cause.

DIGITAL Message ID#202 (WARNING):
AMBIGUITY CONVERGENCE Hazard at time 1.3250011ms
  Device: X_U3.U1
  NODEs: N00873$AtoD (IN1),
         N00834 (IN2) => N00481$DtoA (OUT1)  

DIGITAL Message ID#203 (SERIOUS):
PERSISTENT Hazard at time 1.3250011ms
  On D/A Node "N00481$DtoA"
  See Message ID#202 for probable cause.

DIGITAL Message ID#204 (SERIOUS):
PERSISTENT Hazard at time 1.3250011ms
  Device: On D/A interface X$N00481_DtoA1.N1, "N00481$DtoA"
  See Message ID#202 for probable cause.

DIGITAL Message ID#205 (WARNING):
AMBIGUITY CONVERGENCE Hazard at time 1.3300011ms
  Device: X_U3.U1
  NODEs: N00873$AtoD (IN1),
         N00834 (IN2) => N00481$DtoA (OUT1)  

DIGITAL Message ID#206 (SERIOUS):
PERSISTENT Hazard at time 1.3300011ms
  On D/A Node "N00481$DtoA"
  See Message ID#205 for probable cause.

DIGITAL Message ID#207 (SERIOUS):
PERSISTENT Hazard at time 1.3300011ms
  Device: On D/A interface X$N00481_DtoA1.N1, "N00481$DtoA"
  See Message ID#205 for probable cause.

DIGITAL Message ID#208 (WARNING):
AMBIGUITY CONVERGENCE Hazard at time 1.3350011ms
  Device: X_U3.U1
  NODEs: N00873$AtoD (IN1),
         N00834 (IN2) => N00481$DtoA (OUT1)  

DIGITAL Message ID#209 (SERIOUS):
PERSISTENT Hazard at time 1.3350011ms
  On D/A Node "N00481$DtoA"
  See Message ID#208 for probable cause.

DIGITAL Message ID#210 (SERIOUS):
PERSISTENT Hazard at time 1.3350011ms
  Device: On D/A interface X$N00481_DtoA1.N1, "N00481$DtoA"
  See Message ID#208 for probable cause.

DIGITAL Message ID#211 (WARNING):
AMBIGUITY CONVERGENCE Hazard at time 1.3400011ms
  Device: X_U3.U1
  NODEs: N00873$AtoD (IN1),
         N00834 (IN2) => N00481$DtoA (OUT1)  

DIGITAL Message ID#212 (SERIOUS):
PERSISTENT Hazard at time 1.3400011ms
  On D/A Node "N00481$DtoA"
  See Message ID#211 for probable cause.

DIGITAL Message ID#213 (SERIOUS):
PERSISTENT Hazard at time 1.3400011ms
  Device: On D/A interface X$N00481_DtoA1.N1, "N00481$DtoA"
  See Message ID#211 for probable cause.

DIGITAL Message ID#214 (WARNING):
AMBIGUITY CONVERGENCE Hazard at time 1.3450011ms
  Device: X_U3.U1
  NODEs: N00873$AtoD (IN1),
         N00834 (IN2) => N00481$DtoA (OUT1)  

DIGITAL Message ID#215 (SERIOUS):
PERSISTENT Hazard at time 1.3450011ms
  On D/A Node "N00481$DtoA"
  See Message ID#214 for probable cause.

DIGITAL Message ID#216 (SERIOUS):
PERSISTENT Hazard at time 1.3450011ms
  Device: On D/A interface X$N00481_DtoA1.N1, "N00481$DtoA"
  See Message ID#214 for probable cause.

DIGITAL Message ID#217 (WARNING):
AMBIGUITY CONVERGENCE Hazard at time 1.3500011ms
  Device: X_U3.U1
  NODEs: N00873$AtoD (IN1),
         N00834 (IN2) => N00481$DtoA (OUT1)  

DIGITAL Message ID#218 (SERIOUS):
PERSISTENT Hazard at time 1.3500011ms
  On D/A Node "N00481$DtoA"
  See Message ID#217 for probable cause.

DIGITAL Message ID#219 (SERIOUS):
PERSISTENT Hazard at time 1.3500011ms
  Device: On D/A interface X$N00481_DtoA1.N1, "N00481$DtoA"
  See Message ID#217 for probable cause.

DIGITAL Message ID#220 (WARNING):
AMBIGUITY CONVERGENCE Hazard at time 1.3550011ms
  Device: X_U3.U1
  NODEs: N00873$AtoD (IN1),
         N00834 (IN2) => N00481$DtoA (OUT1)  

DIGITAL Message ID#221 (SERIOUS):
PERSISTENT Hazard at time 1.3550011ms
  On D/A Node "N00481$DtoA"
  See Message ID#220 for probable cause.

DIGITAL Message ID#222 (SERIOUS):
PERSISTENT Hazard at time 1.3550011ms
  Device: On D/A interface X$N00481_DtoA1.N1, "N00481$DtoA"
  See Message ID#220 for probable cause.

DIGITAL Message ID#223 (WARNING):
AMBIGUITY CONVERGENCE Hazard at time 1.3600011ms
  Device: X_U3.U1
  NODEs: N00873$AtoD (IN1),
         N00834 (IN2) => N00481$DtoA (OUT1)  

DIGITAL Message ID#224 (SERIOUS):
PERSISTENT Hazard at time 1.3600011ms
  On D/A Node "N00481$DtoA"
  See Message ID#223 for probable cause.

DIGITAL Message ID#225 (SERIOUS):
PERSISTENT Hazard at time 1.3600011ms
  Device: On D/A interface X$N00481_DtoA1.N1, "N00481$DtoA"
  See Message ID#223 for probable cause.

DIGITAL Message ID#226 (WARNING):
AMBIGUITY CONVERGENCE Hazard at time 1.3650011ms
  Device: X_U3.U1
  NODEs: N00873$AtoD (IN1),
         N00834 (IN2) => N00481$DtoA (OUT1)  

DIGITAL Message ID#227 (SERIOUS):
PERSISTENT Hazard at time 1.3650011ms
  On D/A Node "N00481$DtoA"
  See Message ID#226 for probable cause.

DIGITAL Message ID#228 (SERIOUS):
PERSISTENT Hazard at time 1.3650011ms
  Device: On D/A interface X$N00481_DtoA1.N1, "N00481$DtoA"
  See Message ID#226 for probable cause.

DIGITAL Message ID#229 (WARNING):
AMBIGUITY CONVERGENCE Hazard at time 1.3700011ms
  Device: X_U3.U1
  NODEs: N00873$AtoD (IN1),
         N00834 (IN2) => N00481$DtoA (OUT1)  

DIGITAL Message ID#230 (SERIOUS):
PERSISTENT Hazard at time 1.3700011ms
  On D/A Node "N00481$DtoA"
  See Message ID#229 for probable cause.

DIGITAL Message ID#231 (SERIOUS):
PERSISTENT Hazard at time 1.3700011ms
  Device: On D/A interface X$N00481_DtoA1.N1, "N00481$DtoA"
  See Message ID#229 for probable cause.

DIGITAL Message ID#232 (WARNING):
AMBIGUITY CONVERGENCE Hazard at time 1.3750011ms
  Device: X_U3.U1
  NODEs: N00873$AtoD (IN1),
         N00834 (IN2) => N00481$DtoA (OUT1)  

DIGITAL Message ID#233 (SERIOUS):
PERSISTENT Hazard at time 1.3750011ms
  On D/A Node "N00481$DtoA"
  See Message ID#232 for probable cause.

DIGITAL Message ID#234 (SERIOUS):
PERSISTENT Hazard at time 1.3750011ms
  Device: On D/A interface X$N00481_DtoA1.N1, "N00481$DtoA"
  See Message ID#232 for probable cause.

DIGITAL Message ID#235 (WARNING):
AMBIGUITY CONVERGENCE Hazard at time 1.3800011ms
  Device: X_U3.U1
  NODEs: N00873$AtoD (IN1),
         N00834 (IN2) => N00481$DtoA (OUT1)  

DIGITAL Message ID#236 (SERIOUS):
PERSISTENT Hazard at time 1.3800011ms
  On D/A Node "N00481$DtoA"
  See Message ID#235 for probable cause.

DIGITAL Message ID#237 (SERIOUS):
PERSISTENT Hazard at time 1.3800011ms
  Device: On D/A interface X$N00481_DtoA1.N1, "N00481$DtoA"
  See Message ID#235 for probable cause.

DIGITAL Message ID#238 (WARNING):
AMBIGUITY CONVERGENCE Hazard at time 1.3850011ms
  Device: X_U3.U1
  NODEs: N00873$AtoD (IN1),
         N00834 (IN2) => N00481$DtoA (OUT1)  

DIGITAL Message ID#239 (SERIOUS):
PERSISTENT Hazard at time 1.3850011ms
  On D/A Node "N00481$DtoA"
  See Message ID#238 for probable cause.

DIGITAL Message ID#240 (SERIOUS):
PERSISTENT Hazard at time 1.3850011ms
  Device: On D/A interface X$N00481_DtoA1.N1, "N00481$DtoA"
  See Message ID#238 for probable cause.

DIGITAL Message ID#241 (WARNING):
AMBIGUITY CONVERGENCE Hazard at time 1.3900011ms
  Device: X_U3.U1
  NODEs: N00873$AtoD (IN1),
         N00834 (IN2) => N00481$DtoA (OUT1)  

DIGITAL Message ID#242 (SERIOUS):
PERSISTENT Hazard at time 1.3900011ms
  On D/A Node "N00481$DtoA"
  See Message ID#241 for probable cause.

DIGITAL Message ID#243 (SERIOUS):
PERSISTENT Hazard at time 1.3900011ms
  Device: On D/A interface X$N00481_DtoA1.N1, "N00481$DtoA"
  See Message ID#241 for probable cause.

DIGITAL Message ID#244 (WARNING):
AMBIGUITY CONVERGENCE Hazard at time 1.3950011ms
  Device: X_U3.U1
  NODEs: N00873$AtoD (IN1),
         N00834 (IN2) => N00481$DtoA (OUT1)  

DIGITAL Message ID#245 (SERIOUS):
PERSISTENT Hazard at time 1.3950011ms
  On D/A Node "N00481$DtoA"
  See Message ID#244 for probable cause.

DIGITAL Message ID#246 (SERIOUS):
PERSISTENT Hazard at time 1.3950011ms
  Device: On D/A interface X$N00481_DtoA1.N1, "N00481$DtoA"
  See Message ID#244 for probable cause.

DIGITAL Message ID#247 (WARNING):
AMBIGUITY CONVERGENCE Hazard at time 1.4000011ms
  Device: X_U3.U1
  NODEs: N00873$AtoD (IN1),
         N00834 (IN2) => N00481$DtoA (OUT1)  

DIGITAL Message ID#248 (SERIOUS):
PERSISTENT Hazard at time 1.4000011ms
  On D/A Node "N00481$DtoA"
  See Message ID#247 for probable cause.

DIGITAL Message ID#249 (SERIOUS):
PERSISTENT Hazard at time 1.4000011ms
  Device: On D/A interface X$N00481_DtoA1.N1, "N00481$DtoA"
  See Message ID#247 for probable cause.

DIGITAL Message ID#250 (WARNING):
AMBIGUITY CONVERGENCE Hazard at time 1.4050011ms
  Device: X_U3.U1
  NODEs: N00873$AtoD (IN1),
         N00834 (IN2) => N00481$DtoA (OUT1)  

DIGITAL Message ID#251 (SERIOUS):
PERSISTENT Hazard at time 1.4050011ms
  On D/A Node "N00481$DtoA"
  See Message ID#250 for probable cause.

DIGITAL Message ID#252 (SERIOUS):
PERSISTENT Hazard at time 1.4050011ms
  Device: On D/A interface X$N00481_DtoA1.N1, "N00481$DtoA"
  See Message ID#250 for probable cause.

DIGITAL Message ID#253 (WARNING):
AMBIGUITY CONVERGENCE Hazard at time 1.4100011ms
  Device: X_U3.U1
  NODEs: N00873$AtoD (IN1),
         N00834 (IN2) => N00481$DtoA (OUT1)  

DIGITAL Message ID#254 (SERIOUS):
PERSISTENT Hazard at time 1.4100011ms
  On D/A Node "N00481$DtoA"
  See Message ID#253 for probable cause.

DIGITAL Message ID#255 (SERIOUS):
PERSISTENT Hazard at time 1.4100011ms
  Device: On D/A interface X$N00481_DtoA1.N1, "N00481$DtoA"
  See Message ID#253 for probable cause.

DIGITAL Message ID#256 (WARNING):
AMBIGUITY CONVERGENCE Hazard at time 1.4150011ms
  Device: X_U3.U1
  NODEs: N00873$AtoD (IN1),
         N00834 (IN2) => N00481$DtoA (OUT1)  

DIGITAL Message ID#257 (SERIOUS):
PERSISTENT Hazard at time 1.4150011ms
  On D/A Node "N00481$DtoA"
  See Message ID#256 for probable cause.

DIGITAL Message ID#258 (SERIOUS):
PERSISTENT Hazard at time 1.4150011ms
  Device: On D/A interface X$N00481_DtoA1.N1, "N00481$DtoA"
  See Message ID#256 for probable cause.

DIGITAL Message ID#259 (WARNING):
AMBIGUITY CONVERGENCE Hazard at time 1.4200011ms
  Device: X_U3.U1
  NODEs: N00873$AtoD (IN1),
         N00834 (IN2) => N00481$DtoA (OUT1)  

DIGITAL Message ID#260 (SERIOUS):
PERSISTENT Hazard at time 1.4200011ms
  On D/A Node "N00481$DtoA"
  See Message ID#259 for probable cause.

DIGITAL Message ID#261 (SERIOUS):
PERSISTENT Hazard at time 1.4200011ms
  Device: On D/A interface X$N00481_DtoA1.N1, "N00481$DtoA"
  See Message ID#259 for probable cause.

DIGITAL Message ID#262 (WARNING):
AMBIGUITY CONVERGENCE Hazard at time 1.4250011ms
  Device: X_U3.U1
  NODEs: N00873$AtoD (IN1),
         N00834 (IN2) => N00481$DtoA (OUT1)  

DIGITAL Message ID#263 (SERIOUS):
PERSISTENT Hazard at time 1.4250011ms
  On D/A Node "N00481$DtoA"
  See Message ID#262 for probable cause.

DIGITAL Message ID#264 (SERIOUS):
PERSISTENT Hazard at time 1.4250011ms
  Device: On D/A interface X$N00481_DtoA1.N1, "N00481$DtoA"
  See Message ID#262 for probable cause.

DIGITAL Message ID#265 (WARNING):
AMBIGUITY CONVERGENCE Hazard at time 1.4300011ms
  Device: X_U3.U1
  NODEs: N00873$AtoD (IN1),
         N00834 (IN2) => N00481$DtoA (OUT1)  

DIGITAL Message ID#266 (SERIOUS):
PERSISTENT Hazard at time 1.4300011ms
  On D/A Node "N00481$DtoA"
  See Message ID#265 for probable cause.

DIGITAL Message ID#267 (SERIOUS):
PERSISTENT Hazard at time 1.4300011ms
  Device: On D/A interface X$N00481_DtoA1.N1, "N00481$DtoA"
  See Message ID#265 for probable cause.

DIGITAL Message ID#268 (WARNING):
AMBIGUITY CONVERGENCE Hazard at time 1.4350011ms
  Device: X_U3.U1
  NODEs: N00873$AtoD (IN1),
         N00834 (IN2) => N00481$DtoA (OUT1)  

DIGITAL Message ID#269 (SERIOUS):
PERSISTENT Hazard at time 1.4350011ms
  On D/A Node "N00481$DtoA"
  See Message ID#268 for probable cause.

DIGITAL Message ID#270 (SERIOUS):
PERSISTENT Hazard at time 1.4350011ms
  Device: On D/A interface X$N00481_DtoA1.N1, "N00481$DtoA"
  See Message ID#268 for probable cause.

DIGITAL Message ID#271 (WARNING):
AMBIGUITY CONVERGENCE Hazard at time 1.4400011ms
  Device: X_U3.U1
  NODEs: N00873$AtoD (IN1),
         N00834 (IN2) => N00481$DtoA (OUT1)  

DIGITAL Message ID#272 (SERIOUS):
PERSISTENT Hazard at time 1.4400011ms
  On D/A Node "N00481$DtoA"
  See Message ID#271 for probable cause.

DIGITAL Message ID#273 (SERIOUS):
PERSISTENT Hazard at time 1.4400011ms
  Device: On D/A interface X$N00481_DtoA1.N1, "N00481$DtoA"
  See Message ID#271 for probable cause.

DIGITAL Message ID#274 (WARNING):
AMBIGUITY CONVERGENCE Hazard at time 1.4450011ms
  Device: X_U3.U1
  NODEs: N00873$AtoD (IN1),
         N00834 (IN2) => N00481$DtoA (OUT1)  

DIGITAL Message ID#275 (SERIOUS):
PERSISTENT Hazard at time 1.4450011ms
  On D/A Node "N00481$DtoA"
  See Message ID#274 for probable cause.

DIGITAL Message ID#276 (SERIOUS):
PERSISTENT Hazard at time 1.4450011ms
  Device: On D/A interface X$N00481_DtoA1.N1, "N00481$DtoA"
  See Message ID#274 for probable cause.

DIGITAL Message ID#277 (WARNING):
AMBIGUITY CONVERGENCE Hazard at time 1.4500011ms
  Device: X_U3.U1
  NODEs: N00873$AtoD (IN1),
         N00834 (IN2) => N00481$DtoA (OUT1)  

DIGITAL Message ID#278 (SERIOUS):
PERSISTENT Hazard at time 1.4500011ms
  On D/A Node "N00481$DtoA"
  See Message ID#277 for probable cause.

DIGITAL Message ID#279 (SERIOUS):
PERSISTENT Hazard at time 1.4500011ms
  Device: On D/A interface X$N00481_DtoA1.N1, "N00481$DtoA"
  See Message ID#277 for probable cause.

DIGITAL Message ID#280 (WARNING):
AMBIGUITY CONVERGENCE Hazard at time 1.4550011ms
  Device: X_U3.U1
  NODEs: N00873$AtoD (IN1),
         N00834 (IN2) => N00481$DtoA (OUT1)  

DIGITAL Message ID#281 (SERIOUS):
PERSISTENT Hazard at time 1.4550011ms
  On D/A Node "N00481$DtoA"
  See Message ID#280 for probable cause.

DIGITAL Message ID#282 (SERIOUS):
PERSISTENT Hazard at time 1.4550011ms
  Device: On D/A interface X$N00481_DtoA1.N1, "N00481$DtoA"
  See Message ID#280 for probable cause.

DIGITAL Message ID#283 (WARNING):
AMBIGUITY CONVERGENCE Hazard at time 1.4600011ms
  Device: X_U3.U1
  NODEs: N00873$AtoD (IN1),
         N00834 (IN2) => N00481$DtoA (OUT1)  

DIGITAL Message ID#284 (SERIOUS):
PERSISTENT Hazard at time 1.4600011ms
  On D/A Node "N00481$DtoA"
  See Message ID#283 for probable cause.

DIGITAL Message ID#285 (SERIOUS):
PERSISTENT Hazard at time 1.4600011ms
  Device: On D/A interface X$N00481_DtoA1.N1, "N00481$DtoA"
  See Message ID#283 for probable cause.

DIGITAL Message ID#286 (WARNING):
AMBIGUITY CONVERGENCE Hazard at time 1.4650011ms
  Device: X_U3.U1
  NODEs: N00873$AtoD (IN1),
         N00834 (IN2) => N00481$DtoA (OUT1)  

DIGITAL Message ID#287 (SERIOUS):
PERSISTENT Hazard at time 1.4650011ms
  On D/A Node "N00481$DtoA"
  See Message ID#286 for probable cause.

DIGITAL Message ID#288 (SERIOUS):
PERSISTENT Hazard at time 1.4650011ms
  Device: On D/A interface X$N00481_DtoA1.N1, "N00481$DtoA"
  See Message ID#286 for probable cause.

DIGITAL Message ID#289 (WARNING):
AMBIGUITY CONVERGENCE Hazard at time 1.4700011ms
  Device: X_U3.U1
  NODEs: N00873$AtoD (IN1),
         N00834 (IN2) => N00481$DtoA (OUT1)  

DIGITAL Message ID#290 (SERIOUS):
PERSISTENT Hazard at time 1.4700011ms
  On D/A Node "N00481$DtoA"
  See Message ID#289 for probable cause.

DIGITAL Message ID#291 (SERIOUS):
PERSISTENT Hazard at time 1.4700011ms
  Device: On D/A interface X$N00481_DtoA1.N1, "N00481$DtoA"
  See Message ID#289 for probable cause.

DIGITAL Message ID#292 (WARNING):
AMBIGUITY CONVERGENCE Hazard at time 1.4750011ms
  Device: X_U3.U1
  NODEs: N00873$AtoD (IN1),
         N00834 (IN2) => N00481$DtoA (OUT1)  

DIGITAL Message ID#293 (SERIOUS):
PERSISTENT Hazard at time 1.4750011ms
  On D/A Node "N00481$DtoA"
  See Message ID#292 for probable cause.

DIGITAL Message ID#294 (SERIOUS):
PERSISTENT Hazard at time 1.4750011ms
  Device: On D/A interface X$N00481_DtoA1.N1, "N00481$DtoA"
  See Message ID#292 for probable cause.

DIGITAL Message ID#295 (WARNING):
AMBIGUITY CONVERGENCE Hazard at time 1.4800011ms
  Device: X_U3.U1
  NODEs: N00873$AtoD (IN1),
         N00834 (IN2) => N00481$DtoA (OUT1)  

DIGITAL Message ID#296 (SERIOUS):
PERSISTENT Hazard at time 1.4800011ms
  On D/A Node "N00481$DtoA"
  See Message ID#295 for probable cause.

DIGITAL Message ID#297 (SERIOUS):
PERSISTENT Hazard at time 1.4800011ms
  Device: On D/A interface X$N00481_DtoA1.N1, "N00481$DtoA"
  See Message ID#295 for probable cause.

DIGITAL Message ID#298 (WARNING):
AMBIGUITY CONVERGENCE Hazard at time 1.4850011ms
  Device: X_U3.U1
  NODEs: N00873$AtoD (IN1),
         N00834 (IN2) => N00481$DtoA (OUT1)  

DIGITAL Message ID#299 (SERIOUS):
PERSISTENT Hazard at time 1.4850011ms
  On D/A Node "N00481$DtoA"
  See Message ID#298 for probable cause.

DIGITAL Message ID#300 (SERIOUS):
PERSISTENT Hazard at time 1.4850011ms
  Device: On D/A interface X$N00481_DtoA1.N1, "N00481$DtoA"
  See Message ID#298 for probable cause.

DIGITAL Message ID#301 (WARNING):
AMBIGUITY CONVERGENCE Hazard at time 1.4900011ms
  Device: X_U3.U1
  NODEs: N00873$AtoD (IN1),
         N00834 (IN2) => N00481$DtoA (OUT1)  

DIGITAL Message ID#302 (SERIOUS):
PERSISTENT Hazard at time 1.4900011ms
  On D/A Node "N00481$DtoA"
  See Message ID#301 for probable cause.

DIGITAL Message ID#303 (SERIOUS):
PERSISTENT Hazard at time 1.4900011ms
  Device: On D/A interface X$N00481_DtoA1.N1, "N00481$DtoA"
  See Message ID#301 for probable cause.

DIGITAL Message ID#304 (WARNING):
AMBIGUITY CONVERGENCE Hazard at time 1.4950011ms
  Device: X_U3.U1
  NODEs: N00873$AtoD (IN1),
         N00834 (IN2) => N00481$DtoA (OUT1)  

DIGITAL Message ID#305 (SERIOUS):
PERSISTENT Hazard at time 1.4950011ms
  On D/A Node "N00481$DtoA"
  See Message ID#304 for probable cause.

DIGITAL Message ID#306 (SERIOUS):
PERSISTENT Hazard at time 1.4950011ms
  Device: On D/A interface X$N00481_DtoA1.N1, "N00481$DtoA"
  See Message ID#304 for probable cause.


          JOB CONCLUDED

**** 07/08/25 11:02:34 ***** PSpice 24.1.0 (17 April 2025) **** ID# 0 ********

 ** Profile: "SCHEMATIC1-fgh"  [ f:\swati\orcad_projects\buck_converter-pspicefiles\schematic1\fgh.sim ] 


 ****     JOB STATISTICS SUMMARY


******************************************************************************



  Total job time (using Solver 1)   =        1.31
